data_crystal

_cell_length_a 14.83570
_cell_length_b 30.16580
_cell_length_c 36.66010
_cell_angle_alpha 111.90570
_cell_angle_beta  89.46320
_cell_angle_gamma 92.80140

_symmetry_space_group_name_	'P 1'
_symmetry_space_group_name_H-M	'P 1'

loop_
_symmetry_equiv_pos_as_xyz
  x,y,z

loop_
_atom_site_label
_atom_site_type_symbol
_atom_site_fract_x
_atom_site_fract_y
_atom_site_fract_z
_atom_site_charge
Mn	Mn	0.57971 0.09883 0.37960 1.25000
Mn	Mn	0.78039 0.16039 0.41788 1.28600
Mn	Mn	-0.08016 0.40822 0.65183 1.22300
Mn	Mn	0.72360 0.34324 0.61200 1.27900
Mn	Mn	0.75350 0.25532 0.51353 1.28400
C 	C 	0.64237 0.13835 0.31667 0.08400
N 	N 	0.65232 0.13513 0.35196 -0.21500
N 	N 	0.72885 0.15883 0.36646 -0.18800
N 	N 	0.76649 0.17570 0.34113 -0.04100
N 	N 	0.71347 0.16369 0.30960 -0.04900
N 	N 	0.85124 0.24700 0.40604 -0.10300
N 	N 	0.82534 0.22928 0.43246 -0.17900
N 	N 	0.81301 0.26449 0.46654 -0.16600
N 	N 	0.83170 0.30616 0.46316 -0.06900
C 	C 	0.85699 0.29466 0.42534 0.19800
C 	C 	0.89966 0.14470 0.51194 0.16100
N 	N 	0.82913 0.16025 0.46882 -0.16700
N 	N 	0.88047 0.12770 0.47295 -0.03800
N 	N 	0.64824 0.21713 0.47752 -0.23000
N 	N 	0.66180 0.18190 0.44366 -0.19200
N 	N 	0.58472 0.15957 0.42829 -0.19600
N 	N 	0.51691 0.18001 0.45090 -0.10700
N 	N 	0.81841 0.19503 0.50307 -0.16600
N 	N 	0.86215 0.18677 0.53082 -0.02600
C 	C 	0.55654 0.21629 0.48160 0.16400
N 	N 	0.85621 0.36472 0.67530 -0.25200
N 	N 	0.78136 0.33928 0.66054 -0.18700
N 	N 	0.76764 0.30599 0.67571 -0.03700
N 	N 	0.83419 0.30962 0.70090 -0.06600
N 	N 	0.63190 0.25438 0.61482 -0.08200
N 	N 	0.67876 0.27456 0.59369 -0.19800
N 	N 	0.69336 0.24283 0.55844 -0.19100
N 	N 	0.65840 0.20046 0.55533 -0.04300
N 	N 	0.66960 0.33675 0.50084 -0.08300
N 	N 	0.68843 0.31726 0.52659 -0.19100
N 	N 	0.67412 0.34798 0.56265 -0.19300
N 	N 	0.64769 0.38849 0.56143 -0.09400
N 	N 	0.85898 0.29397 0.54966 -0.19700
N 	N 	0.84304 0.32658 0.58474 -0.18700
N 	N 	0.91801 0.35114 0.60059 -0.18200
N 	N 	-0.01298 0.33466 0.57746 -0.07200
Cl	Cl	0.71708 0.08514 0.40093 -0.69100
Cl	Cl	0.77958 0.42023 0.63380 -0.72700
C 	C 	0.88871 0.34656 0.70034 0.13000
C 	C 	0.62086 0.20798 0.59060 0.11500
C 	C 	0.64296 0.38085 0.52285 0.18200
C 	C 	0.95080 0.29891 0.54556 0.14600
Mn	Mn	1.05517 0.60737 0.37053 1.25500
Mn	Mn	0.25495 0.67026 0.40850 1.28500
Mn	Mn	0.38945 0.90428 0.65269 1.26400
Mn	Mn	0.19422 0.84328 0.60696 1.28000
Mn	Mn	0.22994 0.75631 0.50849 1.28400
C 	C 	0.08078 0.67403 0.32569 0.14900
N 	N 	0.11623 0.65228 0.34772 -0.25100
N 	N 	0.19489 0.67488 0.36052 -0.18300
N 	N 	0.20968 0.70858 0.34595 -0.02200
N 	N 	0.13929 0.70895 0.32396 -0.05900
N 	N 	0.33401 0.76225 0.40566 -0.08600
N 	N 	0.29888 0.74002 0.42792 -0.18100
N 	N 	0.28966 0.77085 0.46423 -0.16900
N 	N 	0.31775 0.81422 0.46695 -0.07700
C 	C 	0.34517 0.80842 0.43041 0.19500
C 	C 	0.37371 0.64002 0.49629 0.12400
N 	N 	0.30723 0.66432 0.45723 -0.16800
N 	N 	0.35666 0.62922 0.45765 -0.05100
N 	N 	0.12505 0.71962 0.47199 -0.22900
N 	N 	0.13768 0.68729 0.43666 -0.19600
N 	N 	0.06133 0.66331 0.42217 -0.21300
N 	N 	0.99488 0.67961 0.44693 -0.09200
N 	N 	0.29462 0.69469 0.49356 -0.16700
N 	N 	0.33572 0.68076 0.51891 -0.02600
C 	C 	0.03470 0.71504 0.47806 0.12200
N 	N 	0.31515 0.86237 0.67475 -0.21400
N 	N 	0.24149 0.83812 0.65692 -0.18300
N 	N 	0.20546 0.81368 0.67724 -0.03000
N 	N 	0.25598 0.82182 0.70903 -0.01900
N 	N 	0.10387 0.75348 0.60766 -0.10100
N 	N 	0.14947 0.77416 0.58676 -0.20100
N 	N 	0.16951 0.74198 0.55228 -0.19500
N 	N 	0.13815 0.69900 0.54930 -0.09500
N 	N 	0.13173 0.83111 0.49465 -0.09400
N 	N 	0.16429 0.81708 0.52170 -0.19500
N 	N 	0.15157 0.84935 0.55709 -0.19000
N 	N 	0.11092 0.88614 0.55442 -0.07600
N 	N 	0.33343 0.79394 0.54694 -0.19600
N 	N 	0.31547 0.82546 0.58235 -0.18900
N 	N 	0.39008 0.84778 0.60068 -0.18300
N 	N 	0.46070 0.83093 0.57877 -0.04100
Cl	Cl	0.19708 0.59362 0.38636 -0.69600
Cl	Cl	0.25469 0.91953 0.63073 -0.69000
C 	C 	0.32418 0.85244 0.70735 0.12600
C 	C 	0.09759 0.70675 0.58397 0.16600
C 	C 	0.09929 0.87404 0.51523 0.18900
C 	C 	0.42581 0.79730 0.54524 0.13400
Mn	Mn	1.09925 0.40649 0.15595 1.27700
Mn	Mn	0.29304 0.34627 0.12280 1.28000
Mn	Mn	0.45748 0.11524 0.89141 1.23000
Mn	Mn	0.25824 0.17225 0.92116 1.29000
Mn	Mn	0.27181 0.26090 0.02148 1.27900
C 	C 	0.13374 0.36282 0.21706 0.09500
N 	N 	0.15329 0.36661 0.18265 -0.21700
N 	N 	0.22562 0.34203 0.16970 -0.18700
N 	N 	0.25145 0.32359 0.19523 -0.04600
N 	N 	0.19444 0.33566 0.22519 -0.06800
N 	N 	0.35194 0.25585 0.12785 -0.10300
N 	N 	0.32658 0.27783 0.10469 -0.20600
N 	N 	0.31925 0.24736 0.06798 -0.19600
N 	N 	0.34020 0.20441 0.06585 -0.10200
C 	C 	0.36087 0.21015 0.10308 0.15800
C 	C 	0.41388 0.38901 0.04215 0.19000
N 	N 	0.35621 0.35319 0.07672 -0.19700
N 	N 	0.39970 0.39336 0.07949 -0.08600
N 	N 	0.16434 0.29507 0.05500 -0.19500
N 	N 	0.17790 0.32714 0.09113 -0.19300
N 	N 	0.10307 0.34847 0.10539 -0.20000
N 	N 	1.03640 0.32997 0.08019 -0.07200
N 	N 	0.34288 0.32531 0.03946 -0.19000
N 	N 	0.37760 0.34692 0.01650 -0.07500
C 	C 	0.07364 0.29668 0.04864 0.08800
N 	N 	0.40543 0.15573 0.86437 -0.25100
N 	N 	0.32951 0.17771 0.87543 -0.17800
N 	N 	0.31160 0.20177 0.85291 -0.00400
N 	N 	0.37681 0.19580 0.82663 -0.04100
N 	N 	0.19781 0.26012 0.91301 -0.03700
N 	N 	0.22060 0.24030 0.93794 -0.17200
N 	N 	0.22664 0.27290 0.97397 -0.15900
N 	N 	0.20829 0.31519 0.97356 -0.02900
N 	N 	0.17059 0.17647 0.02853 -0.07900
N 	N 	0.20021 0.19676 0.00399 -0.16800
N 	N 	0.19357 0.16537 0.96744 -0.16600
N 	N 	0.16088 0.12378 0.96716 -0.08300
N 	N 	0.37971 0.22702 0.98916 -0.23000
N 	N 	0.37057 0.19320 0.95390 -0.19000
N 	N 	0.44694 0.17181 0.94257 -0.19600
N 	N 	0.51027 0.19150 0.96956 -0.09400
Cl	Cl	0.24540 0.42225 0.14281 -0.68300
Cl	Cl	0.31052 0.09727 0.90208 -0.71100
C 	C 	0.43484 0.16683 0.83399 0.16200
C 	C 	0.18862 0.30653 0.93550 0.17500
C 	C 	0.14537 0.13118 0.00522 0.16300
C 	C 	0.46808 0.22625 0.99853 0.18300
Mn	Mn	0.48452 0.82707 0.12975 1.25900
Mn	Mn	0.70708 0.80748 0.10343 1.28200
Mn	Mn	-0.02692 0.62805 0.87221 1.26400
Mn	Mn	0.75076 0.64732 0.89870 1.28600
Mn	Mn	0.72889 0.72632 0.00129 1.28100
C 	C 	0.54255 0.76450 0.17399 0.07700
N 	N 	0.56383 0.79286 0.15403 -0.21600
N 	N 	0.65028 0.78745 0.14582 -0.18500
N 	N 	0.68280 0.75822 0.16121 -0.04200
N 	N 	0.61684 0.74327 0.17919 -0.03300
N 	N 	0.83002 0.73450 0.10828 -0.07800
N 	N 	0.78350 0.74951 0.08489 -0.19300
N 	N 	0.78851 0.71914 0.04815 -0.18700
N 	N 	0.83769 0.68301 0.04641 -0.02200
C 	C 	0.86297 0.69295 0.08398 0.13200
C 	C 	0.81616 0.86589 0.02805 0.10800
N 	N 	0.75771 0.82701 0.06034 -0.18900
N 	N 	0.79109 0.87020 0.06474 -0.05200
N 	N 	0.60956 0.73809 0.03159 -0.19800
N 	N 	0.60480 0.77161 0.06708 -0.18900
N 	N 	0.52011 0.77830 0.07781 -0.18800
N 	N 	0.46601 0.74773 0.05096 -0.06200
N 	N 	0.76167 0.79785 0.02317 -0.19300
N 	N 	0.79793 0.82104 0.00197 -0.05600
C 	C 	0.52177 0.72215 0.02209 0.09800
N 	N 	0.89302 0.66127 0.84790 -0.21400
N 	N 	0.80752 0.66873 0.85714 -0.18500
N 	N 	0.77890 0.70110 0.84423 -0.04400
N 	N 	0.84645 0.71556 0.82662 -0.04900
N 	N 	0.61549 0.71530 0.89567 -0.09300
N 	N 	0.67262 0.70412 0.91793 -0.18200
N 	N 	0.66841 0.73438 0.95468 -0.16800
N 	N 	0.61022 0.76737 0.95730 -0.08300
N 	N 	0.69406 0.62754 0.00040 -0.01200
N 	N 	0.69894 0.65412 -0.02129 -0.16100
N 	N 	0.70252 0.62601 0.94112 -0.16300
N 	N 	0.69986 0.58065 0.93730 -0.05400
N 	N 	0.84802 0.71475 0.97138 -0.23100
N 	N 	0.85237 0.68383 0.93479 -0.18500
N 	N 	0.93681 0.67820 0.92347 -0.16500
N 	N 	-0.00890 0.70679 0.95127 -0.09800
Cl	Cl	0.61328 0.86915 0.12402 -0.70300
Cl	Cl	0.84530 0.58592 0.87737 -0.68500
C 	C 	0.91764 0.69096 0.82986 0.13000
C 	C 	0.57931 0.75584 0.92008 0.16300
C 	C 	0.69364 0.58197 -0.02566 0.13600
C 	C 	0.93589 0.72957 0.98147 0.23400
C 	C 	0.50340 0.24978 0.51521 -0.14000
C 	C 	0.40549 0.25229 0.50368 -0.01900
C 	C 	0.33948 0.21427 0.49786 0.04100
C 	C 	0.35916 0.17278 0.50994 -0.19000
C 	C 	0.25364 0.21576 0.48107 0.04400
C 	C 	0.19156 0.17112 0.46495 -0.19200
C 	C 	0.22849 0.25891 0.47749 0.01300
C 	C 	0.13545 0.26522 0.46302 -0.13500
C 	C 	0.07369 0.29712 0.49604 0.44400
F 	F 	0.12568 0.33096 0.52555 -0.39600
F 	F 	1.01990 0.32147 0.47995 -0.40100
C 	C 	1.01191 0.26760 0.51388 0.39900
F 	F 	1.06556 0.24483 0.53143 -0.38000
F 	F 	0.96338 0.23327 0.48407 -0.45200
C 	C 	0.29346 0.29687 0.48539 0.23100
F 	F 	0.27313 0.33760 0.48023 -0.36900
C 	C 	0.38080 0.29308 0.49701 0.21900
F 	F 	0.44190 0.32979 0.50146 -0.40700
H 	H 	0.50732 0.24024 0.54143 0.08300
H 	H 	0.53617 0.28572 0.52473 0.09700
H 	H 	0.29783 0.16118 0.52234 0.10800
H 	H 	0.41009 0.18255 0.53381 0.12800
H 	H 	0.38294 0.14234 0.48429 0.08200
H 	H 	0.17503 0.16363 0.43368 0.08200
H 	H 	0.22251 0.13842 0.46482 0.08600
H 	H 	0.12840 0.17549 0.48196 0.15300
H 	H 	0.14590 0.28189 0.44076 0.12800
H 	H 	0.09956 0.23060 0.44625 0.09700
C 	C 	0.98318 0.74317 0.51433 -0.10800
C 	C 	0.88546 0.74704 0.50441 -0.03000
C 	C 	0.81963 0.70843 0.49611 0.03300
C 	C 	0.84174 0.66193 0.50044 -0.18400
C 	C 	0.73050 0.71372 0.48437 0.04900
C 	C 	0.66204 0.67180 0.47507 -0.20400
C 	C 	0.70837 0.75778 0.48148 0.01600
C 	C 	0.61787 0.76664 0.46689 -0.14500
C 	C 	0.55592 0.79749 0.50021 0.47500
F 	F 	0.60745 0.82716 0.53214 -0.37900
F 	F 	0.50872 0.82633 0.48612 -0.42800
C 	C 	0.48738 0.76675 0.51370 0.38100
F 	F 	0.43960 0.73670 0.48135 -0.45200
F 	F 	0.53353 0.73954 0.52973 -0.38300
C 	C 	0.77444 0.79533 0.49082 0.23100
F 	F 	0.75579 0.83757 0.48793 -0.34000
C 	C 	0.86045 0.79026 0.50253 0.23200
F 	F 	0.92039 0.82815 0.51162 -0.37800
H 	H 	0.98527 0.72704 0.53672 0.06800
H 	H 	1.01662 0.77894 0.52851 0.09300
H 	H 	0.80079 0.65748 0.52445 0.09900
H 	H 	0.91305 0.65958 0.50756 0.08500
H 	H 	0.82652 0.63122 0.47257 0.08900
H 	H 	0.59259 0.67948 0.46968 0.16200
H 	H 	0.68343 0.64167 0.44857 0.11400
H 	H 	0.65765 0.65988 0.50026 0.16300
H 	H 	0.63245 0.78609 0.44696 0.12800
H 	H 	0.58243 0.73349 0.44695 0.10500
C 	C 	0.51713 0.26232 1.03348 -0.13800
C 	C 	0.61811 0.26673 1.02719 -0.01500
C 	C 	0.68209 0.26695 0.05572 0.03200
C 	C 	0.65612 0.24501 0.08565 -0.18900
C 	C 	0.77016 0.28830 0.05598 0.04200
C 	C 	0.82985 0.30218 0.09232 -0.18800
C 	C 	0.79839 0.30000 0.02314 0.04200
C 	C 	0.88717 0.32719 0.02218 -0.17600
C 	C 	0.96198 0.29706 -0.00420 0.49900
F 	F 	0.92376 0.26684 0.96037 -0.33500
F 	F 	0.02232 0.32849 -0.01239 -0.39700
C 	C 	0.01584 0.26654 0.01322 0.36900
F 	F 	-0.04328 0.23676 0.02390 -0.42600
F 	F 	0.06816 0.23752 0.98374 -0.40700
C 	C 	0.73671 0.29267 -0.00764 0.22000
F 	F 	0.76046 0.30467 0.96121 -0.30200
C 	C 	0.64744 0.27837 0.99516 0.25300
F 	F 	0.58798 0.27840 0.96720 -0.37100
H 	H 	0.49931 0.25516 1.06015 0.06800
H 	H 	0.49336 0.29799 1.03841 0.09800
H 	H 	0.71458 0.22865 0.09352 0.11400
H 	H 	0.60528 0.21489 0.07335 0.10800
H 	H 	0.62906 0.27248 0.11249 0.09500
H 	H 	0.85064 0.34072 0.10292 0.08700
H 	H 	0.79531 0.29798 0.11780 0.09900
H 	H 	0.88977 0.28028 0.08614 0.12900
H 	H 	0.87198 0.35509 0.01038 0.19400
H 	H 	0.91184 0.34954 0.05172 0.10400
C 	C 	-0.02648 0.76235 0.02121 -0.16900
C 	C 	0.07447 0.75501 0.02281 -0.00300
C 	C 	0.14142 0.79029 0.02311 0.03600
C 	C 	0.12058 0.84269 0.04008 -0.19500
C 	C 	0.22831 0.77581 1.00736 0.03200
C 	C 	0.29496 0.81123 0.99996 -0.17700
C 	C 	0.25001 0.72682 0.99548 0.01200
C 	C 	0.33863 0.70875 0.97465 -0.15600
C 	C 	0.38413 0.67081 0.98669 0.49000
F 	F 	0.35366 0.67168 0.02285 -0.36800
F 	F 	0.36156 0.62583 0.95888 -0.36200
C 	C 	0.48814 0.67736 -0.01156 0.36600
F 	F 	0.51883 0.67757 0.95292 -0.43600
F 	F 	0.51994 0.63814 -0.00597 -0.36400
C 	C 	0.18448 0.69381 0.99977 0.25200
F 	F 	0.19832 0.64625 0.98596 -0.32100
C 	C 	0.10011 0.70813 0.01489 0.22000
F 	F 	0.03737 0.67381 0.01474 -0.34500
H 	H 	-0.04145 0.79932 0.02505 0.09100
H 	H 	-0.05910 0.75457 0.04539 0.09900
H 	H 	0.17776 0.86410 0.05880 0.09900
H 	H 	0.06194 0.84929 0.06003 0.12200
H 	H 	0.10807 0.85597 0.01617 0.13700
H 	H 	0.35593 0.81669 1.01877 0.07600
H 	H 	0.31422 0.79732 0.96848 0.11300
H 	H 	0.26761 0.84660 0.00554 0.09500
H 	H 	0.32470 0.69319 0.94247 0.13100
H 	H 	0.38848 0.73878 0.97895 0.08500
C 	C 	0.05681 0.90362 0.49581 -0.11600
C 	C 	0.04577 0.95455 0.52371 -0.03800
C 	C 	0.11453 0.99092 0.52925 0.05700
C 	C 	0.20522 0.97713 0.50972 -0.18700
C 	C 	0.09674 0.03948 0.55228 0.02900
C 	C 	0.16867 0.07831 0.55506 -0.18100
C 	C 	1.01080 0.05018 0.57066 0.05300
C 	C 	0.98121 0.10065 0.59315 -0.14200
C 	C 	0.91746 0.11865 0.56905 0.47600
F 	F 	0.84054 0.08863 0.55800 -0.34900
F 	F 	0.89131 0.16331 0.59389 -0.38000
C 	C 	0.96163 0.12268 0.53183 0.38800
F 	F 	1.03970 0.15169 0.54228 -0.38800
F 	F 	0.98279 0.07795 0.50537 -0.39800
C 	C 	0.94773 1.01249 0.56736 0.22700
F 	F 	0.86775 1.02116 0.58652 -0.32300
C 	C 	0.96439 0.96569 0.54387 0.26600
F 	F 	0.89966 0.93089 0.54044 -0.33200
H 	H 	0.09785 0.90280 0.47016 0.07900
H 	H 	-0.00930 0.88627 0.48300 0.14000
H 	H 	0.25912 0.00567 0.52027 0.09200
H 	H 	0.19826 0.96714 0.47749 0.09000
H 	H 	0.22996 0.94636 0.51572 0.09600
H 	H 	0.14972 0.11533 0.57079 0.13100
H 	H 	0.22906 0.07362 0.57066 0.11000
H 	H 	0.18731 0.07601 0.52499 0.10600
H 	H 	0.94465 0.10098 0.61986 0.17100
H 	H 	0.03760 0.12714 0.60568 0.11600
C 	C 	0.14174 0.09058 0.01945 -0.13500
C 	C 	0.05251 0.08119 0.03653 -0.00000
C 	C 	-0.02603 0.06308 0.01270 -0.00500
C 	C 	0.96999 0.06674 0.97257 -0.12500
C 	C 	0.90175 0.04054 0.02645 0.07300
C 	C 	0.81381 1.02604 0.00355 -0.19700
C 	C 	0.91343 1.03243 0.06188 0.04400
C 	C 	0.86497 0.99081 0.06947 -0.16300
C 	C 	0.91780 0.94398 0.05186 0.47000
F 	F 	1.00119 0.95395 0.03831 -0.37800
F 	F 	0.93658 0.92803 0.08174 -0.41400
C 	C 	0.86782 0.90333 0.01702 0.38600
F 	F 	0.80916 0.92181 -0.00213 -0.42600
F 	F 	0.93165 0.87963 -0.01024 -0.37200
C 	C 	-0.01435 1.05663 0.08711 0.22200
F 	F 	-0.00392 1.05186 0.12222 -0.36100
C 	C 	0.05307 0.08162 0.07497 0.22800
F 	F 	0.12446 0.10171 0.09952 -0.39400
H 	H 	0.15835 0.05719 0.99471 0.09900
H 	H 	0.19823 0.09720 0.04080 0.11300
H 	H 	0.90920 0.04906 0.95498 0.07900
H 	H 	0.02833 0.04949 0.95464 0.08000
H 	H 	0.97115 0.10499 0.97624 0.10900
H 	H 	0.75798 1.01661 0.01989 0.11200
H 	H 	0.79031 0.05686 -0.00277 0.08500
H 	H 	0.82346 0.99542 0.97553 0.13200
H 	H 	0.85894 1.00051 0.10175 0.16600
H 	H 	0.79367 0.98485 0.05977 0.11600
C 	C 	0.64989 0.42139 0.50871 -0.12600
C 	C 	0.56236 0.43263 0.49375 0.00100
C 	C 	0.49002 0.45296 0.51936 0.06400
C 	C 	0.48921 0.45314 0.56080 -0.18800
C 	C 	0.42110 0.47473 0.50613 0.06500
C 	C 	0.33703 0.49067 0.53017 -0.19800
C 	C 	0.43235 0.48157 0.47011 0.02600
C 	C 	0.40059 0.52634 0.46544 -0.16400
C 	C 	0.47275 0.56863 0.48207 0.46900
F 	F 	0.54353 0.55592 0.50013 -0.38700
F 	F 	0.50968 0.57955 0.45138 -0.40800
C 	C 	0.43418 0.61377 0.51298 0.38600
F 	F 	0.38707 0.60167 0.54095 -0.39600
F 	F 	0.50522 0.64512 0.53196 -0.34600
C 	C 	0.49651 0.45557 0.44337 0.23900
F 	F 	0.50482 0.45909 0.40760 -0.36000
C 	C 	0.55970 0.43059 0.45480 0.23800
F 	F 	0.62529 0.40930 0.42899 -0.37700
H 	H 	0.67676 0.45414 0.53289 0.09600
H 	H 	0.70296 0.41316 0.48587 0.12800
H 	H 	0.43554 0.47418 0.57960 0.09800
H 	H 	0.55361 0.46942 0.57619 0.10100
H 	H 	0.47887 0.41596 0.55958 0.11900
H 	H 	0.28061 0.49524 0.51251 0.11600
H 	H 	0.31182 0.46256 0.54101 0.11700
H 	H 	0.35189 0.52458 0.55550 0.14000
H 	H 	0.38816 0.51898 0.43382 0.15200
H 	H 	0.33410 0.53639 0.47916 0.10800
C 	C 	0.44552 0.43158 0.03312 -0.11600
C 	C 	0.48339 0.42191 -0.00739 -0.01400
C 	C 	0.44998 0.44511 -0.03139 0.07400
C 	C 	0.35173 0.45725 -0.02904 -0.23100
C 	C 	0.51092 0.45818 0.94362 0.05300
C 	C 	0.48361 0.49072 0.92296 -0.18700
C 	C 	0.60068 0.44254 0.93987 0.03300
C 	C 	0.67587 0.46413 0.92210 -0.16400
C 	C 	0.74656 0.49587 0.95299 0.48500
F 	F 	0.78721 0.46823 -0.02966 -0.33200
F 	F 	0.81409 0.51106 0.93332 -0.39800
C 	C 	0.70891 0.54024 -0.01371 0.37900
F 	F 	0.62981 0.52852 1.00150 -0.37400
F 	F 	0.77204 0.55584 0.01656 -0.30300
C 	C 	0.62274 0.40886 -0.04395 0.23100
F 	F 	0.70278 0.38740 -0.05208 -0.31500
C 	C 	0.56687 0.40078 -0.01617 0.25800
F 	F 	0.59896 0.37714 0.00561 -0.36600
H 	H 	0.39037 0.45692 0.04049 0.10000
H 	H 	0.50015 0.45076 0.05456 0.12700
H 	H 	0.32216 0.44605 0.94099 0.14600
H 	H 	0.34520 0.49627 -0.01333 0.14300
H 	H 	0.31047 0.43773 0.98609 0.15700
H 	H 	0.49529 0.47318 0.89080 0.09100
H 	H 	0.41197 0.50002 0.92707 0.11800
H 	H 	0.52461 0.52502 0.93462 0.13400
H 	H 	0.71086 0.43449 0.89963 0.14300
H 	H 	0.65015 0.48540 0.90589 0.09300
C 	C 	0.85471 0.32882 0.40434 -0.13400
C 	C 	0.94365 0.33916 0.38718 0.01300
C 	C 	0.98719 0.30415 0.35512 0.02400
C 	C 	0.95421 0.25216 0.33974 -0.12100
C 	C 	1.05897 0.31887 0.33561 0.08500
C 	C 	0.12028 0.28249 0.30815 -0.20400
C 	C 	1.07198 0.36798 0.34200 0.01500
C 	C 	1.10740 0.38385 0.30955 -0.14800
C 	C 	1.03462 0.37222 0.27677 0.48900
F 	F 	1.01473 0.32341 0.26004 -0.41700
F 	F 	0.95630 0.39397 0.29377 -0.37000
C 	C 	0.06127 0.39024 0.24382 0.33700
F 	F 	0.08948 0.43808 0.25983 -0.43400
F 	F 	0.98513 0.38625 0.22098 -0.40500
C 	C 	1.03428 0.40184 0.37544 0.24200
F 	F 	1.04868 0.44941 0.38361 -0.37600
C 	C 	0.97464 0.38737 0.39887 0.23200
F 	F 	0.93844 0.42169 0.43038 -0.36800
H 	H 	0.80398 0.31475 0.38015 0.10000
H 	H 	0.82654 0.36225 0.42505 0.14100
H 	H 	-0.02117 0.23164 0.30987 0.07100
H 	H 	0.87969 0.24899 0.33676 0.09200
H 	H 	-0.02200 0.23470 0.35940 0.06100
H 	H 	0.18526 0.29897 0.30320 0.09000
H 	H 	0.13839 0.25665 0.32162 0.08100
H 	H 	0.08667 0.26265 0.27936 0.11900
H 	H 	1.12364 0.42303 0.32141 0.16000
H 	H 	0.17169 0.36740 0.29790 0.08600
C 	C 	-0.01831 0.67076 0.31666 -0.13600
C 	C 	0.96123 0.67803 0.27888 -0.00000
C 	C 	0.95056 0.72410 0.27753 0.04400
C 	C 	0.97102 0.76920 0.31337 -0.16300
C 	C 	0.91896 0.72783 0.24210 0.04400
C 	C 	0.90051 0.77609 0.24019 -0.18600
C 	C 	0.90243 0.68552 0.20821 0.03600
C 	C 	0.87044 0.68623 0.16913 -0.17000
C 	C 	0.94898 0.68093 0.13985 0.48200
F 	F 	0.99309 0.72515 0.14790 -0.40100
F 	F 	1.01134 0.65062 0.14448 -0.32300
C 	C 	0.91750 0.66005 0.09640 0.38700
F 	F 	0.86718 0.61767 0.08899 -0.32700
F 	F 	0.99336 0.64938 0.07316 -0.28800
C 	C 	0.91581 0.64077 0.21026 0.23800
F 	F 	0.89967 0.59992 0.17831 -0.33100
C 	C 	0.94456 0.63710 0.24490 0.23300
F 	F 	0.95514 0.59282 0.24534 -0.38200
H 	H 	-0.05392 0.69661 0.34180 0.04500
H 	H 	-0.04627 0.63528 0.31523 0.04200
H 	H 	0.90768 0.78801 0.32379 0.08000
H 	H 	0.02102 0.79280 0.30562 0.10300
H 	H 	1.00132 0.76335 0.33852 0.10400
H 	H 	0.93859 0.78130 0.21579 0.13200
H 	H 	0.82726 0.77786 0.23538 0.08400
H 	H 	0.91908 0.80722 0.26714 0.09300
H 	H 	0.81761 0.65712 0.15668 0.16300
H 	H 	0.83568 0.71930 0.17332 0.10300
C 	C 	0.98115 0.36006 0.71788 -0.08000
C 	C 	-0.00234 0.35252 0.75593 -0.04600
C 	C 	-0.03982 0.38232 0.79209 0.01500
C 	C 	0.87503 0.40758 0.79090 -0.15700
C 	C 	0.00526 0.38865 0.82815 0.04200
C 	C 	-0.02044 0.42689 0.86698 -0.20500
C 	C 	0.08074 0.36077 0.82734 0.02500
C 	C 	0.14031 0.36984 0.86328 -0.15800
C 	C 	0.12471 0.33254 0.88255 0.48400
F 	F 	0.03556 0.33204 0.89400 -0.37300
F 	F 	0.14287 0.28771 0.85547 -0.37500
C 	C 	0.18687 0.34524 0.91905 0.38300
F 	F 	0.27466 0.35324 0.90902 -0.41500
F 	F 	0.15883 0.38668 0.94809 -0.37800
C 	C 	0.10749 0.32659 0.79135 0.22400
F 	F 	0.18029 0.30026 0.78962 -0.34100
C 	C 	0.06646 0.32246 0.75627 0.23200
F 	F 	0.09907 0.29121 0.72204 -0.37500
H 	H 	0.99621 0.39843 0.72338 0.00900
H 	H 	0.02921 0.34057 0.69480 0.07300
H 	H 	0.83660 0.41904 0.81848 0.08800
H 	H 	0.82592 0.38241 0.76986 0.08000
H 	H 	0.89092 0.43843 0.78200 0.06600
H 	H 	0.03649 0.45379 0.87810 0.10800
H 	H 	-0.07773 0.44821 0.86585 0.11300
H 	H 	-0.03669 0.41016 0.88872 0.16300
H 	H 	0.21179 0.36995 0.85394 0.14900
H 	H 	0.13317 0.40593 0.88594 0.12200
C 	C 	0.37378 0.16857 0.11518 -0.12400
C 	C 	0.42160 0.18169 0.15450 -0.02300
C 	C 	0.37400 0.19446 0.19056 0.04700
C 	C 	0.27588 0.20696 0.19256 -0.19000
C 	C 	0.41918 0.19491 0.22495 0.03600
C 	C 	0.36960 0.20502 0.26338 -0.18400
C 	C 	0.51196 0.18446 0.22305 0.03200
C 	C 	0.56100 0.17795 0.25690 -0.16700
C 	C 	0.56698 0.12428 0.25025 0.47900
F 	F 	0.49452 0.09802 0.22731 -0.38100
F 	F 	0.64533 0.10742 0.23002 -0.37200
C 	C 	0.56534 0.11456 0.28880 0.36600
F 	F 	0.48516 0.12937 0.30814 -0.45700
F 	F 	0.56815 0.06570 0.27917 -0.40700
C 	C 	0.55888 0.17624 0.18794 0.22700
F 	F 	0.64805 0.16741 0.18580 -0.34900
C 	C 	0.51443 0.17469 0.15424 0.22800
F 	F 	0.56195 0.16415 0.12047 -0.40200
H 	H 	0.30742 0.14984 0.11515 0.10000
H 	H 	0.41212 0.14183 0.09165 0.10900
H 	H 	0.23294 0.17927 0.19849 0.10800
H 	H 	0.25033 0.21031 0.16553 0.10400
H 	H 	0.26741 0.24239 0.21625 0.08900
H 	H 	0.40038 0.23774 0.28628 0.08900
H 	H 	0.29710 0.21084 0.26182 0.08000
H 	H 	0.37414 0.17434 0.27295 0.12500
H 	H 	0.63009 0.19502 0.25986 0.14100
H 	H 	0.52887 0.19731 0.28541 0.10000
C 	C 	0.49579 0.77605 0.91026 -0.11500
C 	C 	0.49796 0.80539 0.88361 -0.02700
C 	C 	0.56933 0.80964 0.85847 0.05100
C 	C 	0.64705 0.77721 0.85013 -0.19000
C 	C 	0.56147 0.84060 0.83723 0.03100
C 	C 	0.64365 0.85552 0.81879 -0.17900
C 	C 	0.47634 0.85890 0.83450 0.02300
C 	C 	0.45832 0.88461 0.80648 -0.14800
C 	C 	0.39219 0.85585 0.77238 0.48300
F 	F 	0.41366 0.80823 0.75735 -0.39000
F 	F 	0.30536 0.85883 0.78690 -0.37500
C 	C 	0.39593 0.87520 0.73862 0.36700
F 	F 	0.47945 0.86704 0.72090 -0.43900
F 	F 	0.38514 0.92401 0.75399 -0.44200
C 	C 	0.40647 0.85360 0.85879 0.23300
F 	F 	0.32684 0.87435 0.85991 -0.34000
C 	C 	0.41765 0.82827 0.88320 0.22900
F 	F 	0.34697 0.82458 0.90593 -0.38600
H 	H 	0.44524 0.74577 0.89771 0.10500
H 	H 	0.46855 0.79922 0.93908 0.09600
H 	H 	0.68926 0.77722 0.82511 0.09600
H 	H 	0.61910 0.73988 0.84018 0.10300
H 	H 	0.69121 0.78690 0.87648 0.10500
H 	H 	0.64567 0.89463 0.82555 0.08200
H 	H 	0.70802 0.85017 0.83133 0.08800
H 	H 	0.64224 0.83575 0.78645 0.10600
H 	H 	0.43082 0.91993 0.82366 0.13200
H 	H 	0.52117 0.89261 0.79329 0.11100
C 	C 	0.37747 0.84954 0.41923 -0.12000
C 	C 	0.39795 0.83473 0.37576 -0.02800
C 	C 	0.48669 0.82580 0.36084 0.04000
C 	C 	0.56219 0.82705 0.38889 -0.19000
C 	C 	0.50277 0.81543 0.32004 0.03100
C 	C 	0.59775 0.80547 0.30427 -0.17100
C 	C 	0.42909 0.81447 0.29495 0.03000
C 	C 	0.44079 0.80860 0.25220 -0.16800
C 	C 	0.43204 0.75569 0.22424 0.47200
F 	F 	0.49266 0.72905 0.23492 -0.40600
F 	F 	0.34574 0.73762 0.22719 -0.33800
C 	C 	0.44775 0.74972 0.18110 0.37800
F 	F 	0.38696 0.77597 0.17006 -0.46400
F 	F 	0.43222 0.70198 0.15749 -0.32800
C 	C 	0.34144 0.82091 0.31034 0.21900
F 	F 	0.26940 0.81765 0.28668 -0.35800
C 	C 	0.32634 0.83118 0.35005 0.22700
F 	F 	0.24075 0.83849 0.36376 -0.39800
H 	H 	0.32460 0.87635 0.42732 0.09900
H 	H 	0.43636 0.86828 0.43791 0.10200
H 	H 	0.62680 0.81452 0.37450 0.08700
H 	H 	0.54217 0.80327 0.40476 0.10700
H 	H 	0.57546 0.86411 0.41040 0.10900
H 	H 	0.60489 0.79789 0.27258 0.10200
H 	H 	0.64394 0.83685 0.31976 0.07500
H 	H 	0.62118 0.77353 0.30890 0.09700
H 	H 	0.38835 0.82848 0.24404 0.13800
H 	H 	0.50496 0.82634 0.24791 0.07400
C 	C 	0.51972 0.14878 0.81174 -0.11700
C 	C 	0.53507 0.16407 0.77681 -0.02300
C 	C 	0.61492 0.18983 0.77252 0.04800
C 	C 	0.69560 0.19471 0.79906 -0.19200
C 	C 	0.62043 0.20730 0.74126 0.04000
C 	C 	0.69516 0.24293 0.74012 -0.18800
C 	C 	0.55301 0.19209 0.71121 0.03100
C 	C 	0.55732 0.20567 0.67509 -0.16500
C 	C 	0.59362 0.16529 0.63854 0.47700
F 	F 	0.68688 0.16588 0.64124 -0.38300
F 	F 	0.55952 0.12117 0.63749 -0.34400
C 	C 	0.56663 0.16979 0.59945 0.38900
F 	F 	0.47603 0.17882 0.59955 -0.41000
F 	F 	0.57941 0.12633 0.56916 -0.34300
C 	C 	0.47857 0.16321 0.71449 0.23400
F 	F 	0.41306 0.14831 0.68625 -0.34100
C 	C 	0.46930 0.14993 0.74684 0.23600
F 	F 	0.39581 0.12211 0.74859 -0.37700
H 	H 	0.57534 0.16122 0.83364 0.03800
H 	H 	0.51581 0.10908 0.80072 0.05700
H 	H 	0.76043 0.20084 0.78605 0.10900
H 	H 	0.70435 0.16052 0.80317 0.09400
H 	H 	0.68638 0.22389 0.82801 0.11300
H 	H 	0.66554 0.27475 0.73763 0.09000
H 	H 	0.73667 0.25786 0.76726 0.09700
H 	H 	0.73974 0.22606 0.71471 0.13700
H 	H 	0.48832 0.21445 0.66936 0.15100
H 	H 	0.59897 0.23891 0.68028 0.09700
C 	C 	0.04947 0.66840 0.59424 -0.12100
C 	C 	0.04787 0.68305 0.63835 -0.01700
C 	C 	-0.02468 0.70768 0.66142 0.00900
C 	C 	0.89442 0.71761 0.64102 -0.15600
C 	C 	-0.01992 0.72266 0.70311 0.06100
C 	C 	-0.10067 0.74541 0.72763 -0.23300
C 	C 	0.05980 0.71485 0.72089 0.02900
C 	C 	0.06808 0.72718 0.76464 -0.16700
C 	C 	0.02766 0.68564 0.77547 0.47300
F 	F 	-0.05312 0.66811 0.75516 -0.45000
F 	F 	0.08642 0.64861 0.76256 -0.38400
C 	C 	0.01362 0.70051 0.82050 0.34700
F 	F 	0.03594 0.74857 0.84104 -0.40000
F 	F 	0.06936 0.67478 0.83461 -0.46700
C 	C 	0.13147 0.69191 0.69725 0.23300
F 	F 	0.20767 0.68373 0.71356 -0.34100
C 	C 	0.12534 0.67605 0.65669 0.22800
F 	F 	0.19661 0.65421 0.63499 -0.36600
H 	H 	-0.01898 0.66108 0.58084 0.05800
H 	H 	0.08490 0.63452 0.58075 0.11300
H 	H 	0.84480 0.74056 0.66110 0.08600
H 	H 	0.85823 0.68334 0.62325 0.09100
H 	H 	0.91717 0.73652 0.62152 0.08400
H 	H 	-0.09671 0.75043 0.75898 0.11600
H 	H 	0.89038 0.78110 0.72631 0.10900
H 	H 	0.83766 0.72203 0.71631 0.12600
H 	H 	0.14007 0.73396 0.77420 0.18500
H 	H 	0.03726 0.76171 0.78089 0.12700
