data_crystal

_cell_length_a 34.34010
_cell_length_b 38.32140
_cell_length_c 35.65120
_cell_angle_alpha 96.56570
_cell_angle_beta  94.10430
_cell_angle_gamma 100.55810

_symmetry_space_group_name_	'P 1'
_symmetry_space_group_name_H-M	'P 1'

loop_
_symmetry_equiv_pos_as_xyz
  x,y,z

loop_
_atom_site_label
_atom_site_type_symbol
_atom_site_fract_x
_atom_site_fract_y
_atom_site_fract_z
_atom_site_charge
O 	O 	0.11750 0.02399 0.28479 -0.48200
Eu	Eu	0.17904 1.01401 0.29334 2.31100
O 	O 	0.19774 1.03259 0.23838 -0.57000
O 	O 	0.16526 0.06640 0.31224 -0.49000
C 	C 	0.12819 0.05646 0.30094 0.31500
O 	O 	0.20481 1.00694 0.18159 -0.54200
Eu	Eu	0.26567 -0.00253 0.19921 2.45700
C 	C 	0.29572 0.05077 0.16456 0.31100
C 	C 	0.18253 1.01839 0.20531 0.45500
C 	C 	0.29205 0.93822 0.20390 0.31800
O 	O 	0.28913 0.01835 0.14778 -0.46900
O 	O 	0.28921 0.05458 0.19948 -0.45400
C 	C 	0.26511 0.01251 0.28752 0.38400
O 	O 	0.31563 0.96895 0.21079 -0.42200
O 	O 	0.24713 -0.00584 0.25732 -0.58000
O 	O 	0.24368 0.02101 0.31321 -0.49600
O 	O 	0.25649 0.93888 0.19092 -0.50300
C 	C 	0.16125 0.95231 0.31914 0.26800
O 	O 	0.16016 0.98218 0.33905 -0.42700
O 	O 	0.17206 0.95488 0.28569 -0.44400
O 	O 	-0.00322 0.81362 0.64449 -0.43000
Eu	Eu	-0.00877 0.79225 0.69964 2.33100
O 	O 	0.97627 0.73489 0.67117 -0.53800
O 	O 	0.04834 0.80065 0.67437 -0.40000
C 	C 	0.03407 0.81254 0.64533 0.29000
O 	O 	1.02464 0.72053 0.70576 -0.57700
Eu	Eu	1.03148 0.70168 0.76309 2.33100
C 	C 	0.05915 0.64498 0.73957 0.32200
C 	C 	0.99488 0.71102 0.68104 0.45100
C 	C 	0.99391 0.69727 0.82421 0.28400
O 	O 	0.02186 0.64378 0.74232 -0.49000
O 	O 	0.08128 0.67621 0.74635 -0.46800
C 	C 	0.04216 0.78268 0.77500 0.37100
O 	O 	1.02768 0.68804 0.82135 -0.39800
O 	O 	0.05847 0.75806 0.78608 -0.45300
O 	O 	0.00877 0.77330 0.75474 -0.55800
O 	O 	0.97859 0.70706 0.79415 -0.46700
C 	C 	0.94949 0.83614 0.73264 0.25700
O 	O 	0.98574 0.84610 0.72601 -0.38000
O 	O 	0.93435 0.80337 0.72024 -0.43700
O 	O 	0.27743 0.70472 0.55175 -0.25900
Eu	Eu	0.25968 0.74917 0.52241 1.47600
O 	O 	0.19958 0.71552 0.50573 -0.36700
O 	O 	0.25271 0.74388 0.58362 -0.31200
C 	C 	0.26698 0.71566 0.58379 0.27200
O 	O 	0.18611 0.75382 0.46745 -0.37200
Eu	Eu	0.24192 0.79229 0.49180 1.40800
C 	C 	0.19769 0.83059 0.53285 0.32100
C 	C 	0.17624 0.72432 0.48078 0.34500
C 	C 	0.23892 0.82941 0.43246 0.29600
O 	O 	0.20792 0.83667 0.50043 -0.29800
O 	O 	0.21099 0.80453 0.54451 -0.42000
C 	C 	0.32557 0.81679 0.53469 0.37000
O 	O 	0.22194 0.83514 0.46230 -0.28800
O 	O 	0.29841 0.82923 0.51747 -0.45200
O 	O 	0.31943 0.78367 0.53897 -0.45700
O 	O 	0.25803 0.80405 0.43321 -0.36300
C 	C 	0.28798 0.70642 0.47089 0.27900
O 	O 	0.28671 0.70130 0.50540 -0.25700
O 	O 	0.27608 0.73452 0.46366 -0.41600
O 	O 	1.02432 0.06349 0.03047 -0.26700
Eu	Eu	1.00199 0.00443 1.01911 1.63200
O 	O 	0.04917 0.04910 1.00577 -0.33600
O 	O 	0.99473 0.03761 0.07342 -0.38000
C 	C 	1.01193 0.06700 0.06346 0.27200
O 	O 	0.09137 0.01382 -0.01059 -0.39600
Eu	Eu	0.04458 0.96423 -0.01055 1.68600
C 	C 	0.07389 0.94830 0.05545 0.34800
C 	C 	0.08281 0.04496 -0.00526 0.32700
C 	C 	0.02884 0.90963 0.93317 0.27500
O 	O 	0.04871 0.96857 0.05312 -0.50500
O 	O 	0.08543 0.93822 0.02367 -0.34100
C 	C 	0.96284 0.92437 1.01364 0.31800
O 	O 	0.01346 0.90864 0.96486 -0.27400
O 	O 	0.99212 0.91943 -0.00554 -0.29100
O 	O 	0.96023 0.95548 0.02841 -0.39100
O 	O 	0.05215 0.93910 0.93101 -0.37700
C 	C 	0.96427 0.00286 0.95026 0.43700
O 	O 	0.95416 0.01838 0.98037 -0.41000
O 	O 	0.99431 -0.01124 0.95601 -0.58600
O 	O 	0.46967 0.25491 0.64633 -0.49700
Eu	Eu	0.46614 0.26957 0.70785 2.26100
O 	O 	0.46122 0.21311 0.71951 -0.61100
O 	O 	0.52396 0.27033 0.68394 -0.50300
C 	C 	0.50785 0.26053 0.64986 0.32500
O 	O 	0.51821 0.19574 0.72408 -0.54600
Eu	Eu	0.52366 0.21326 0.78643 2.25100
C 	C 	0.56052 0.16027 0.79815 0.33900
C 	C 	0.48571 0.19589 0.70498 0.43100
C 	C 	0.47553 0.22237 0.83887 0.32900
O 	O 	0.52271 0.15707 0.79504 -0.48800
O 	O 	0.57959 0.19175 0.79513 -0.46900
C 	C 	0.51203 0.29211 0.79001 0.44800
O 	O 	0.51302 0.22534 0.84657 -0.50000
O 	O 	0.53699 0.27229 0.78127 -0.57500
O 	O 	0.47969 0.29024 0.76933 -0.56700
O 	O 	0.46314 0.21539 0.80360 -0.49800
C 	C 	0.41699 0.31366 0.70097 0.32700
O 	O 	0.45407 0.32219 0.69631 -0.47700
O 	O 	0.40569 0.28175 0.70894 -0.50000
O 	O 	0.74576 0.18858 0.52798 -0.27300
Eu	Eu	0.77090 0.24493 0.51731 1.47000
O 	O 	0.72549 0.19410 0.49516 -0.29600
O 	O 	0.79038 0.22003 0.56832 -0.31800
C 	C 	0.76732 0.19003 0.55896 0.28400
O 	O 	0.68462 0.22462 0.46814 -0.37300
Eu	Eu	0.72456 0.27669 0.49101 1.47700
C 	C 	0.68468 0.28425 0.55252 0.31100
C 	C 	0.69369 0.19478 0.47400 0.27800
C 	C 	0.68615 0.31117 0.44326 0.32300
O 	O 	0.67604 0.29631 0.52190 -0.28400
O 	O 	0.71318 0.26755 0.55065 -0.45200
C 	C 	0.80189 0.32775 0.52356 0.38400
O 	O 	0.67624 0.30675 0.47630 -0.31200
O 	O 	0.76609 0.32814 0.51228 -0.45800
O 	O 	0.81232 0.29829 0.52854 -0.45000
O 	O 	0.71569 0.29722 0.43508 -0.40000
C 	C 	0.83259 0.21940 0.48683 0.31500
O 	O 	0.82868 0.22411 0.52142 -0.28800
O 	O 	0.80411 0.22700 0.46775 -0.39100
O 	O 	0.67516 0.03544 0.80179 -0.45900
Eu	Eu	0.70358 0.98708 0.80034 2.17200
O 	O 	0.69383 0.98423 0.73741 -0.56200
O 	O 	0.73696 0.04452 0.81435 -0.29700
C 	C 	0.70642 0.05855 0.81086 0.29500
O 	O 	0.75491 1.00634 0.73155 -0.58500
Eu	Eu	0.81478 0.03795 0.72669 2.18000
C 	C 	0.78592 0.09582 0.71354 0.30200
C 	C 	0.71946 0.99803 0.71690 0.52900
C 	C 	0.84565 0.97770 0.71163 0.34900
O 	O 	0.79326 0.07311 0.68748 -0.48600
O 	O 	0.79290 0.08785 0.74682 -0.38400
C 	C 	0.80170 0.01308 0.80736 0.33200
O 	O 	0.84295 0.99204 0.74482 -0.41300
O 	O 	0.82752 0.01742 0.78289 -0.38000
O 	O 	0.76708 0.02046 0.79998 -0.35300
O 	O 	0.83143 0.99404 0.68710 -0.51400
C 	C 	0.71971 0.94605 0.84945 0.32100
O 	O 	0.70905 0.97599 0.85947 -0.44600
O 	O 	0.72877 0.94101 0.81513 -0.46600
O 	O 	0.01220 0.30025 0.12623 -0.49100
Eu	Eu	-0.00579 0.29048 0.18318 2.33400
O 	O 	0.97540 0.23075 0.16383 -0.47600
O 	O 	0.05558 0.28896 0.16768 -0.45600
C 	C 	0.04779 0.29555 0.13372 0.31900
O 	O 	0.99732 0.22090 0.21967 -0.51800
Eu	Eu	0.97616 0.20674 0.27485 2.30000
C 	C 	0.04846 0.20957 0.31022 0.25900
C 	C 	0.97811 0.20893 0.18784 0.35000
C 	C 	0.92425 0.22295 0.32131 0.33600
O 	O 	0.03047 0.18328 0.28665 -0.41800
O 	O 	0.02976 0.23526 0.31352 -0.28000
C 	C 	0.01230 0.28662 0.27306 0.32800
O 	O 	0.94826 0.20220 0.32834 -0.49000
O 	O 	0.01129 0.26277 0.29556 -0.34200
O 	O 	-0.01261 0.27969 0.24369 -0.52200
O 	O 	0.92592 0.23396 0.28869 -0.48500
C 	C 	0.95734 0.34419 0.19586 0.31800
O 	O 	0.99535 0.34841 0.19753 -0.44500
O 	O 	0.93864 0.31197 0.18537 -0.49000
O 	O 	0.50272 0.10228 0.48300 -0.42700
Eu	Eu	0.47542 0.04534 0.48247 2.32900
O 	O 	0.53363 0.02596 0.48009 -0.57500
O 	O 	0.49574 0.08063 0.53621 -0.46300
C 	C 	0.50650 0.10821 0.51938 0.26100
O 	O 	0.57846 0.00906 0.51697 -0.53500
Eu	Eu	0.54627 0.95136 0.50801 2.38000
C 	C 	0.56762 0.94774 0.57832 0.26100
C 	C 	0.56453 0.03417 0.50364 0.46300
C 	C 	0.53853 0.89702 0.45545 0.27800
O 	O 	0.58847 0.93824 0.55173 -0.45000
O 	O 	0.53494 0.95676 0.56763 -0.41600
C 	C 	0.45904 0.96502 0.49479 0.40500
O 	O 	0.52512 0.89405 0.48776 -0.39800
O 	O 	0.49223 0.96677 0.48076 -0.51800
O 	O 	0.44388 0.99284 0.49793 -0.47900
O 	O 	0.55950 0.92768 0.45200 -0.43000
C 	C 	0.41236 0.04142 0.43643 0.32700
O 	O 	0.41603 0.05770 0.47040 -0.48700
O 	O 	0.44335 0.03041 0.42548 -0.47700
O 	O 	0.24268 0.16682 0.01803 -0.20500
Eu	Eu	0.29350 0.21034 1.00963 1.41700
O 	O 	0.23092 0.18242 0.98566 -0.34600
O 	O 	0.28330 0.19195 0.06581 -0.33100
C 	C 	0.25233 0.16856 0.05369 0.23200
O 	O 	0.21880 0.23022 0.96129 -0.45300
Eu	Eu	0.27527 0.26144 -0.00792 1.55300
C 	C 	0.23588 0.28610 0.04876 0.29300
C 	C 	0.20851 0.19747 0.96495 0.36100
C 	C 	0.27686 0.31058 0.94436 0.32100
O 	O 	0.24191 0.30165 0.01950 -0.27700
O 	O 	0.24995 0.25779 0.04810 -0.39400
C 	C 	0.36069 0.27689 0.03069 0.38600
O 	O 	0.26046 0.31242 0.97515 -0.32300
O 	O 	0.33246 0.29244 0.02151 -0.45700
O 	O 	0.35456 0.24291 0.02742 -0.46400
O 	O 	0.29196 0.28296 0.93836 -0.40300
C 	C 	0.31951 0.17785 0.94915 0.29400
O 	O 	0.32027 0.16666 0.98132 -0.31300
O 	O 	0.30516 0.20607 0.94845 -0.42800
O 	O 	0.14460 0.48449 0.80947 -0.40500
Eu	Eu	0.20701 0.48136 0.80078 2.36500
O 	O 	0.19248 0.46715 0.73740 -0.49300
O 	O 	0.18522 0.53273 0.80197 -0.40800
C 	C 	0.15012 0.51829 0.80867 0.27600
O 	O 	0.24452 0.50729 0.73110 -0.54400
Eu	Eu	0.30958 0.51929 0.72146 2.39100
C 	C 	0.29876 0.55789 0.66650 0.33300
C 	C 	0.21740 0.48113 0.71600 0.37300
C 	C 	0.36764 0.48390 0.71513 0.28600
O 	O 	0.29839 0.52418 0.66024 -0.41200
O 	O 	0.30425 0.57107 0.70161 -0.48000
C 	C 	0.29897 0.51751 0.80629 0.38300
O 	O 	0.37226 0.51752 0.71275 -0.43000
O 	O 	0.32404 0.53141 0.78500 -0.49600
O 	O 	0.27218 0.49102 0.79145 -0.54600
O 	O 	0.33243 0.46878 0.72088 -0.44800
C 	C 	0.21294 0.44767 0.86058 0.27400
O 	O 	0.21763 0.48171 0.86281 -0.34600
O 	O 	0.20788 0.43119 0.82669 -0.44600
O 	O 	0.76895 0.64028 -0.00740 -0.37800
Eu	Eu	0.78554 0.69729 0.98423 2.36700
O 	O 	0.72498 0.71115 0.99162 -0.52900
O 	O 	0.79498 0.67927 0.04066 -0.38900
C 	C 	0.78263 0.64614 0.02760 0.31400
O 	O 	0.67480 0.72925 1.01561 -0.37500
Eu	Eu	0.70038 0.78137 -0.00613 2.12700
C 	C 	0.68151 0.79189 0.06566 0.28000
C 	C 	0.69480 0.70431 1.01024 0.36500
C 	C 	0.72206 0.78670 0.92472 0.27000
O 	O 	0.67314 0.76166 0.04530 -0.31800
O 	O 	0.69916 0.81629 0.04868 -0.42400
C 	C 	0.79307 0.78064 0.00127 0.45500
O 	O 	0.72677 0.81337 0.95055 -0.48400
O 	O 	0.76016 0.77071 0.01452 -0.52000
O 	O 	0.81262 0.75666 -0.00979 -0.50800
O 	O 	0.70666 0.75693 0.93526 -0.44300
C 	C 	0.82327 0.68438 0.92414 0.32600
O 	O 	0.83841 0.68364 0.95794 -0.46100
O 	O 	0.78847 0.69208 0.92206 -0.47100
O 	O 	0.52940 0.75501 0.15737 -0.45000
Eu	Eu	0.49756 0.78675 0.19563 2.21700
O 	O 	0.47032 0.73638 0.21710 -0.53900
O 	O 	0.55673 0.77541 0.21396 -0.48300
C 	C 	0.55863 0.75692 0.18219 0.32000
O 	O 	0.44761 0.68503 0.23335 -0.47600
Eu	Eu	0.46970 0.70869 0.29453 2.27900
C 	C 	0.50457 0.65459 0.30421 0.32700
C 	C 	0.45369 0.70436 0.20671 0.41100
C 	C 	0.43690 0.72781 0.35603 0.32000
O 	O 	0.46787 0.65380 0.30929 -0.47600
O 	O 	0.52267 0.68359 0.29368 -0.49800
C 	C 	0.48162 0.79310 0.28155 0.42700
O 	O 	0.47443 0.72901 0.35601 -0.47200
O 	O 	0.49412 0.76378 0.27883 -0.55300
O 	O 	0.48393 0.81149 0.25346 -0.39700
O 	O 	0.41709 0.71912 0.32341 -0.49500
C 	C 	0.43038 0.81360 0.19384 0.26900
O 	O 	0.45675 0.82052 0.22187 -0.32200
O 	O 	0.43878 0.79228 0.16723 -0.38000
O 	O 	0.65074 0.53658 0.32104 -0.42200
Eu	Eu	0.67639 0.48899 0.29863 2.15000
O 	O 	0.67718 0.50278 0.23795 -0.39200
O 	O 	0.66692 0.53357 0.26513 -0.32200
C 	C 	0.65417 0.55201 0.29157 0.26700
O 	O 	0.73879 0.49561 0.23627 -0.38900
Eu	Eu	0.80455 0.50351 0.22507 2.20500
C 	C 	0.82759 0.53154 0.16475 0.31500
C 	C 	0.70637 0.49963 0.21806 0.36500
C 	C 	0.80446 0.43319 0.22400 0.30800
O 	O 	0.84603 0.51015 0.18081 -0.50400
O 	O 	0.79788 0.53960 0.18138 -0.48000
C 	C 	0.76717 0.52170 0.30364 0.33900
O 	O 	0.81978 0.45665 0.25154 -0.41400
O 	O 	0.76168 0.50427 0.27021 -0.37800
O 	O 	0.73695 0.52092 0.32232 -0.39000
O 	O 	0.78759 0.44616 0.19770 -0.41400
C 	C 	0.69871 0.42980 0.31567 0.29400
O 	O 	0.68324 0.44962 0.33930 -0.44300
O 	O 	0.70202 0.44083 0.28347 -0.40400
O 	O 	0.44138 0.55332 0.04723 -0.47100
Eu	Eu	0.45537 0.50611 1.01296 2.26000
O 	O 	0.50735 0.54368 0.98961 -0.42200
O 	O 	0.48966 0.52936 0.06795 -0.45300
C 	C 	0.46869 0.55354 0.07383 0.31600
O 	O 	0.56562 0.52293 -0.01751 -0.55600
Eu	Eu	0.54370 0.46569 -0.01596 2.39700
C 	C 	0.56999 0.47614 0.05769 0.35500
C 	C 	0.54506 0.54777 -0.01591 0.43900
C 	C 	0.53111 0.45250 0.90822 0.30100
O 	O 	0.58878 0.46321 0.03194 -0.46800
O 	O 	0.53688 0.48250 0.04532 -0.46300
C 	C 	0.47514 0.42667 0.99584 0.39900
O 	O 	0.56195 0.44748 0.92686 -0.46600
O 	O 	0.50546 0.41303 -0.01054 -0.47600
O 	O 	0.47857 0.45910 -0.01019 -0.73700
O 	O 	0.50756 0.46572 0.92872 -0.41600
C 	C 	0.43517 0.52527 0.94493 0.32500
O 	O 	0.41369 0.50133 0.95998 -0.43300
O 	O 	0.46765 0.53873 0.96491 -0.39100
O 	O 	0.98563 0.58584 0.51074 -0.34000
Eu	Eu	0.96506 0.52757 0.48914 2.10500
O 	O 	0.01010 0.53089 0.44662 -0.55500
O 	O 	1.01237 0.54714 0.53702 -0.42300
C 	C 	1.01112 0.58018 0.53634 0.23400
O 	O 	0.06943 0.53936 0.47696 -0.52200
Eu	Eu	0.06758 0.48022 0.47003 2.09900
C 	C 	0.09270 0.47906 0.54312 0.32200
C 	C 	0.04394 0.55077 0.45641 0.40800
C 	C 	0.02969 0.42526 0.42354 0.32100
O 	O 	0.11586 0.48695 0.51807 -0.46300
O 	O 	0.05634 0.47187 0.53011 -0.33200
C 	C 	0.98311 0.45195 0.49889 0.31800
O 	O 	0.05721 0.42248 0.44887 -0.43600
O 	O 	1.01854 0.46920 0.51013 -0.35900
O 	O 	0.95758 0.46795 0.48454 -0.49400
O 	O 	0.02022 0.45622 0.42455 -0.49200
C 	C 	0.92549 0.56465 0.44731 0.28400
O 	O 	0.95262 0.57986 0.47381 -0.38300
O 	O 	0.91892 0.53057 0.44364 -0.47300
C 	C 	0.30530 0.08254 0.14535 -0.02300
C 	C 	0.34431 0.10207 0.14865 -0.03100
C 	C 	0.35169 0.13756 0.14049 0.09600
C 	C 	0.39332 0.15904 0.14454 -0.21200
C 	C 	0.31961 0.15371 0.13025 -0.03000
C 	C 	0.28023 0.13442 0.12721 -0.00200
C 	C 	0.24482 0.15245 0.12060 0.44100
F 	F 	0.21505 0.13872 0.14223 -0.35700
F 	F 	0.25517 0.18890 0.13288 -0.36300
C 	C 	0.22777 0.14607 0.07853 0.38200
F 	F 	0.22403 0.11040 0.06424 -0.36500
F 	F 	0.19012 0.15419 0.07619 -0.32100
C 	C 	0.27364 0.09843 0.13373 0.04100
H 	H 	0.36852 0.09030 0.15945 0.08000
H 	H 	0.41539 0.14322 0.15396 0.11000
H 	H 	0.39563 0.18308 0.16577 0.11200
H 	H 	0.40085 0.16779 0.11686 0.10500
H 	H 	0.32546 0.18161 0.12579 0.10100
H 	H 	0.24339 0.08354 0.13276 0.10100
C 	C 	0.84420 0.67698 0.89013 -0.02900
C 	C 	0.82482 0.67525 0.85371 -0.03200
C 	C 	0.84480 0.66909 0.82134 0.09300
C 	C 	0.82433 0.66731 0.78236 -0.21000
C 	C 	0.88440 0.66470 0.82543 -0.02700
C 	C 	0.90404 0.66569 0.86155 0.00500
C 	C 	0.94741 0.66244 0.86540 0.44100
F 	F 	0.95689 0.65254 0.90064 -0.35100
F 	F 	0.95308 0.63500 0.83862 -0.40200
C 	C 	0.97524 0.69842 0.86104 0.36300
F 	F 	0.95497 0.72664 0.86374 -0.40900
F 	F 	1.00569 0.70624 0.89019 -0.32200
C 	C 	0.88371 0.67194 0.89383 0.03600
H 	H 	0.79421 0.67876 0.85049 0.09500
H 	H 	0.79322 0.67138 0.78344 0.11300
H 	H 	0.82377 0.64068 0.76612 0.10000
H 	H 	0.84073 0.68837 0.76729 0.10500
H 	H 	0.90004 0.66066 0.80042 0.08000
H 	H 	0.89888 0.67366 0.92189 0.11800
C 	C 	0.29329 0.57996 0.63575 -0.00500
C 	C 	0.27974 0.56387 0.59856 -0.04200
C 	C 	0.27414 0.58496 0.56966 0.12200
C 	C 	0.25835 0.56808 0.53011 -0.22900
C 	C 	0.28331 0.62234 0.57777 -0.03400
C 	C 	0.29759 0.63902 0.61459 0.02300
C 	C 	0.30766 0.67969 0.62264 0.43800
F 	F 	0.32608 0.69003 0.65915 -0.36600
F 	F 	0.33538 0.69218 0.59848 -0.39000
C 	C 	0.26992 0.69693 0.61854 0.36600
F 	F 	0.23543 0.67140 0.61754 -0.37900
F 	F 	0.27043 0.72198 0.64998 -0.33200
C 	C 	0.30205 0.61750 0.64352 0.02300
H 	H 	0.27313 0.53500 0.59209 0.12500
H 	H 	0.25234 0.53839 0.52771 0.12000
H 	H 	0.28037 0.57663 0.51000 0.14400
H 	H 	0.23015 0.57682 0.52200 0.13300
H 	H 	0.27932 0.63843 0.55526 0.12500
H 	H 	0.31256 0.62983 0.67218 0.11400
C 	C 	0.37394 1.03204 0.41331 -0.04400
C 	C 	0.33869 1.02716 0.43124 -0.03100
C 	C 	0.30252 1.01123 0.41043 0.08800
C 	C 	0.26522 1.00524 0.43008 -0.22000
C 	C 	0.30158 1.00061 0.37143 -0.03100
C 	C 	0.33599 0.00821 0.35246 -0.01900
C 	C 	0.33338 0.00177 0.30947 0.45600
F 	F 	0.37124 0.00772 0.29728 -0.37100
F 	F 	0.31612 -0.03352 0.29675 -0.45100
C 	C 	0.30930 0.02700 0.29152 0.30500
F 	F 	0.31702 0.06044 0.31298 -0.38200
F 	F 	0.32173 0.03176 0.25627 -0.45000
C 	C 	0.37240 0.02314 0.37395 0.04900
H 	H 	0.33952 1.03398 0.46168 0.07300
H 	H 	0.26202 1.03034 0.44736 0.10500
H 	H 	0.23864 0.99690 0.40935 0.12900
H 	H 	0.26627 0.98423 0.44884 0.11300
H 	H 	0.27397 0.98651 0.35594 0.06700
H 	H 	0.39971 0.02775 0.36035 0.10900
C 	C 	0.01797 0.10194 0.08725 -0.01300
C 	C 	0.04127 0.13195 0.07536 -0.04900
C 	C 	0.04674 0.16546 0.09706 0.11900
C 	C 	0.06998 0.19746 0.08277 -0.22800
C 	C 	0.02973 0.16891 0.13151 -0.03300
C 	C 	0.00555 0.13936 0.14366 -0.00700
C 	C 	0.98638 0.14381 0.18063 0.44100
F 	F 	0.96542 0.11102 0.18767 -0.40000
F 	F 	1.01633 0.15530 0.20994 -0.45000
C 	C 	0.95708 0.17030 0.18009 0.29900
F 	F 	0.93438 0.16425 0.14538 -0.37400
F 	F 	0.93150 0.16413 0.20796 -0.47300
C 	C 	1.00009 0.10577 0.12125 0.02300
H 	H 	0.05515 0.12946 0.04910 0.13600
H 	H 	0.10171 0.19520 0.08278 0.16100
H 	H 	0.06777 0.22233 0.10085 0.10400
H 	H 	0.05797 0.19938 0.05346 0.11500
H 	H 	0.03552 0.19471 0.14874 0.07700
H 	H 	0.98184 0.08251 0.12994 0.10000
C 	C 	0.80841 0.81893 -0.00133 -0.11500
C 	C 	0.78534 0.84470 0.00826 0.03800
C 	C 	0.79824 0.88061 0.00373 0.07400
C 	C 	0.77174 0.90730 0.01109 -0.19400
C 	C 	0.83636 0.89155 -0.00727 0.02000
C 	C 	0.86142 0.86669 0.98615 -0.00900
C 	C 	0.90439 0.87967 0.97969 0.45400
F 	F 	0.91916 0.85183 0.96122 -0.40000
F 	F 	0.90611 0.90629 0.95614 -0.42500
C 	C 	0.93026 0.89359 1.01790 0.34200
F 	F 	0.90729 0.90490 0.04567 -0.36800
F 	F 	0.94704 0.86635 1.03059 -0.33200
C 	C 	0.84682 0.83026 0.98816 0.08600
H 	H 	0.75662 0.83669 0.01805 -0.01900
H 	H 	0.74180 0.89414 0.01762 0.09300
H 	H 	0.76782 0.92093 -0.01439 0.11100
H 	H 	0.78527 0.92756 0.03552 0.11900
H 	H 	0.84681 0.91957 -0.00977 0.10200
H 	H 	0.86581 0.81091 0.98289 0.09800
C 	C 	0.38945 0.33876 0.69747 -0.04300
C 	C 	0.34889 0.32806 0.70179 -0.03600
C 	C 	0.32275 0.35190 0.69826 0.08600
C 	C 	0.27931 0.34047 0.70271 -0.20800
C 	C 	0.33727 0.38656 0.68999 -0.02900
C 	C 	0.37779 0.39770 0.68538 0.00600
C 	C 	0.39343 0.43499 0.67562 0.44200
F 	F 	0.42879 0.43509 0.65899 -0.36300
F 	F 	0.36670 0.44331 0.64853 -0.39500
C 	C 	0.40119 0.46384 0.71118 0.36100
F 	F 	0.40710 0.44853 0.74404 -0.37700
F 	F 	0.43557 0.48836 0.70811 -0.33700
C 	C 	0.40369 0.37363 0.68961 0.04100
H 	H 	0.33755 0.30109 0.70754 0.06700
H 	H 	0.27261 0.31309 0.71105 0.09300
H 	H 	0.26162 0.34061 0.67543 0.11700
H 	H 	0.27017 0.35925 0.72495 0.09500
H 	H 	0.31680 0.40461 0.68678 0.10800
H 	H 	0.43508 0.38199 0.68674 0.11300
C 	C 	0.53161 0.25587 0.61731 -0.04100
C 	C 	0.51343 0.24937 0.57998 -0.02700
C 	C 	0.53631 0.24568 0.54917 0.13200
C 	C 	0.51733 0.23995 0.50913 -0.22300
C 	C 	0.57743 0.24761 0.55584 -0.01000
C 	C 	0.59604 0.25365 0.59301 0.02400
C 	C 	0.64058 0.25552 0.59972 0.44800
F 	F 	0.65095 0.25385 0.63772 -0.36600
F 	F 	0.64987 0.22544 0.57965 -0.40900
C 	C 	0.66491 0.29062 0.58828 0.34300
F 	F 	0.64097 0.31566 0.58390 -0.38800
F 	F 	0.69475 0.30574 0.61686 -0.34700
C 	C 	0.57287 0.25814 0.62357 0.04700
H 	H 	0.48159 0.24757 0.57485 0.07900
H 	H 	0.48472 0.23887 0.50819 0.12000
H 	H 	0.52256 0.21439 0.49426 0.17300
H 	H 	0.53065 0.26221 0.49387 0.11300
H 	H 	0.59499 0.24436 0.53205 0.11800
H 	H 	0.58686 0.26333 0.65237 0.10400
C 	C 	0.71393 0.91662 0.87274 -0.03600
C 	C 	0.67922 0.91122 0.89152 -0.03900
C 	C 	0.66505 0.87801 0.90320 0.06100
C 	C 	0.62643 0.87118 0.92089 -0.19300
C 	C 	0.68633 0.85040 0.89696 -0.02800
C 	C 	0.72340 0.85629 0.88156 -0.01200
C 	C 	0.75025 0.82861 0.87791 0.44700
F 	F 	0.76207 0.82645 0.84148 -0.35400
F 	F 	0.78407 0.84115 0.90286 -0.39600
C 	C 	0.73204 0.79000 0.88474 0.35700
F 	F 	0.69797 0.77733 0.86021 -0.38900
F 	F 	0.75921 0.76827 0.87655 -0.35600
C 	C 	0.73647 0.88963 0.86894 0.03900
H 	H 	0.66128 0.93173 0.89400 0.05700
H 	H 	0.61282 0.89540 0.92392 0.08900
H 	H 	0.63173 0.86309 0.94948 0.06700
H 	H 	0.60517 0.84927 0.90291 0.08600
H 	H 	0.67321 0.82463 0.90433 0.05000
H 	H 	0.76346 0.89409 0.85473 0.12700
C 	C 	0.07668 0.29591 0.10466 -0.03900
C 	C 	0.06479 0.30001 0.06712 -0.04000
C 	C 	0.08990 0.29565 0.03829 0.09400
C 	C 	0.07694 0.29919 -0.00200 -0.21500
C 	C 	0.12726 0.28729 0.04703 -0.02800
C 	C 	0.14034 0.28412 0.08450 0.00500
C 	C 	0.18024 0.27326 0.09276 0.44100
F 	F 	0.18615 0.26990 0.13100 -0.34300
F 	F 	0.17818 0.23949 0.07310 -0.39800
C 	C 	0.21631 0.30061 0.08214 0.36000
F 	F 	0.20490 0.33222 0.07476 -0.37100
F 	F 	0.24518 0.30928 0.11265 -0.32700
C 	C 	0.11484 0.28880 0.11327 0.02500
H 	H 	0.03555 0.30567 0.06007 0.07800
H 	H 	0.04620 0.30446 -0.00498 0.11000
H 	H 	0.07777 0.27405 -0.02055 0.10600
H 	H 	0.09734 0.32166 -0.01171 0.12600
H 	H 	0.14611 0.28292 0.02450 0.08700
H 	H 	0.12384 0.28548 0.14215 0.12200
C 	C 	0.94309 0.00076 0.91231 -0.07200
C 	C 	0.95671 0.98322 0.88056 -0.00900
C 	C 	0.93666 0.98093 0.84451 0.09700
C 	C 	0.94985 0.96107 0.81071 -0.22600
C 	C 	0.90288 0.99617 0.84009 -0.02300
C 	C 	0.88818 0.01315 0.87153 0.00300
C 	C 	0.85192 0.03020 0.86595 0.45400
F 	F 	0.84263 0.04484 0.90086 -0.36200
F 	F 	0.86255 0.05876 0.84569 -0.41100
C 	C 	0.81412 1.00331 0.84571 0.33300
F 	F 	0.82006 0.96830 0.84125 -0.40000
F 	F 	0.78349 0.00482 0.86852 -0.37100
C 	C 	0.90886 0.01560 0.90764 0.05700
H 	H 	0.98268 0.97106 0.88385 0.07500
H 	H 	0.97790 0.95166 0.81778 0.14300
H 	H 	0.95456 -0.02155 0.78792 0.11400
H 	H 	0.92594 0.93765 0.80037 0.15900
H 	H 	0.88774 0.99425 0.81205 0.09300
H 	H 	0.89868 0.02922 0.93224 0.10600
C 	C 	0.89864 0.23487 0.34978 -0.04400
C 	C 	0.86860 0.25363 0.34046 -0.03200
C 	C 	0.84691 0.26716 0.36884 0.08800
C 	C 	0.81483 0.28750 0.35935 -0.21800
C 	C 	0.85575 0.26210 0.40668 -0.01700
C 	C 	0.88555 0.24312 0.41639 -0.00200
C 	C 	0.89639 0.23861 0.45744 0.44700
F 	F 	0.93478 0.23209 0.46154 -0.35000
F 	F 	0.89674 0.27038 0.48049 -0.38800
C 	C 	0.86783 0.20733 0.47095 0.34400
F 	F 	0.85484 0.17980 0.44157 -0.38100
F 	F 	0.88810 0.19384 0.49928 -0.33400
C 	C 	0.90643 0.22929 0.38758 0.04700
H 	H 	0.86249 0.25816 0.31135 0.07900
H 	H 	0.81132 0.28969 0.32853 0.13500
H 	H 	0.82241 0.31495 0.37514 0.11900
H 	H 	0.78597 0.27366 0.36765 0.11200
H 	H 	0.83965 0.27336 0.42855 0.06800
H 	H 	0.92964 0.21481 0.39469 0.11400
C 	C 	0.76805 0.15881 0.57914 -0.01900
C 	C 	0.77830 0.12848 0.55984 -0.03900
C 	C 	0.77866 0.09786 0.57754 0.08600
C 	C 	0.79409 0.06725 0.55774 -0.20800
C 	C 	0.76530 0.09653 0.61371 -0.03700
C 	C 	0.75534 0.12688 0.63401 -0.00700
C 	C 	0.73905 0.12470 0.67264 0.44700
F 	F 	0.71666 0.15110 0.67916 -0.36300
F 	F 	0.71331 0.09216 0.67201 -0.41500
C 	C 	0.77215 0.12986 0.70605 0.35600
F 	F 	0.80478 0.15457 0.69907 -0.38100
F 	F 	0.75780 0.14365 0.73880 -0.29400
C 	C 	0.75842 0.15866 0.61677 0.02300
H 	H 	0.78687 0.12892 0.53118 0.09400
H 	H 	0.82454 0.07706 0.54995 0.10700
H 	H 	0.77451 0.05550 0.53153 0.09800
H 	H 	0.79609 0.04623 0.57632 0.07900
H 	H 	0.76215 0.07158 0.62551 0.07700
H 	H 	0.75132 0.18260 0.63169 0.11300
C 	C 	0.23612 0.85126 0.40137 -0.03700
C 	C 	0.26767 0.85974 0.37925 -0.03900
C 	C 	0.26693 0.88589 0.35474 0.08100
C 	C 	0.30232 0.89758 0.33382 -0.21800
C 	C 	0.23401 0.90291 0.35180 -0.03100
C 	C 	0.20143 0.89364 0.37290 -0.00600
C 	C 	0.16721 0.91402 0.37312 0.44200
F 	F 	0.13752 0.89731 0.39313 -0.37000
F 	F 	0.18138 0.94758 0.39313 -0.42900
C 	C 	0.14774 0.91676 0.33293 0.36500
F 	F 	0.15460 0.88949 0.30669 -0.38600
F 	F 	0.10693 0.91257 0.33399 -0.34000
C 	C 	0.20306 0.86772 0.39754 0.03200
H 	H 	0.29377 0.84784 0.38294 0.06200
H 	H 	0.32475 0.88035 0.33650 0.10300
H 	H 	0.31668 0.92531 0.34554 0.13300
H 	H 	0.29289 0.89678 0.30342 0.11800
H 	H 	0.23410 0.92368 0.33354 0.07200
H 	H 	0.17922 0.86120 0.41535 0.10900
C 	C 	0.13980 0.01365 0.19344 -0.14700
C 	C 	0.11912 0.04172 0.19981 0.01000
C 	C 	0.08038 0.03850 0.18244 0.07000
C 	C 	0.05851 0.06878 0.18956 -0.20600
C 	C 	0.06275 0.00723 0.15795 -0.01100
C 	C 	0.08333 0.97887 0.15131 -0.03100
C 	C 	0.06462 0.94395 0.12651 0.45700
F 	F 	0.06444 0.91689 0.14920 -0.35200
F 	F 	0.02512 0.94364 0.11481 -0.39000
C 	C 	0.08766 0.93515 0.09135 0.33900
F 	F 	0.12814 -0.05177 0.09871 -0.38500
F 	F 	0.08236 0.89825 0.08349 -0.31600
C 	C 	0.12123 0.98206 0.17045 0.07800
H 	H 	0.13356 0.06645 0.21713 0.05400
H 	H 	0.07532 0.09332 0.18011 0.12600
H 	H 	0.05510 0.07418 0.22029 0.11700
H 	H 	0.02842 0.06238 0.17403 0.11700
H 	H 	0.03299 0.00504 0.14448 0.09600
H 	H 	0.13690 0.95995 0.16696 0.08200
C 	C 	0.58620 0.07143 0.51410 -0.12500
C 	C 	0.60446 0.08279 0.55101 0.00500
C 	C 	0.62871 0.11678 0.56029 0.12300
C 	C 	0.64654 0.12948 0.60026 -0.22700
C 	C 	0.63612 0.13906 0.53198 -0.00900
C 	C 	0.61813 0.12824 0.49477 0.01000
C 	C 	0.62468 0.15351 0.46486 0.45000
F 	F 	0.59968 0.13920 0.43225 -0.36400
F 	F 	0.61376 0.18541 0.47817 -0.38300
C 	C 	0.66834 0.16037 0.45402 0.35500
F 	F 	0.68635 0.13182 0.46081 -0.38600
F 	F 	0.66790 0.16261 0.41548 -0.34400
C 	C 	0.59295 0.09428 0.48622 0.07500
H 	H 	0.59962 0.06527 0.57262 0.10800
H 	H 	0.63578 0.11010 0.61994 0.16100
H 	H 	0.63854 0.15557 0.61020 0.18600
H 	H 	0.67926 0.13286 0.60114 0.12900
H 	H 	0.65537 0.16508 0.53908 0.11300
H 	H 	0.57928 0.08496 0.45768 0.07200
C 	C 	0.40058 0.29866 0.04350 -0.07400
C 	C 	0.43361 0.28260 0.05032 -0.02700
C 	C 	0.47205 0.30372 0.05769 0.07200
C 	C 	0.50779 0.28672 0.06265 -0.19800
C 	C 	0.47737 0.34103 0.05867 -0.02200
C 	C 	0.44449 0.35744 1.05253 -0.01000
C 	C 	0.44911 0.39750 1.05205 0.43700
F 	F 	0.42319 0.40982 1.07617 -0.38600
F 	F 	0.48719 0.41466 0.06687 -0.42000
C 	C 	0.43932 0.40694 1.01131 0.30600
F 	F 	0.42424 0.37663 0.98564 -0.40700
F 	F 	0.41064 0.42812 1.01226 -0.43000
C 	C 	0.40631 0.33605 1.04557 0.04600
H 	H 	0.42967 0.25372 0.04866 0.06700
H 	H 	0.49927 0.25720 0.06131 0.09800
H 	H 	0.52467 0.29758 0.09052 0.10800
H 	H 	0.52735 0.29280 1.03980 0.08700
H 	H 	0.50723 0.35697 0.06354 0.09900
H 	H 	0.38115 0.34882 1.04016 0.10900
C 	C 	0.07637 0.61276 0.73334 -0.02500
C 	C 	0.10668 0.61161 0.70929 -0.02700
C 	C 	0.12795 0.58367 0.70837 0.11100
C 	C 	0.16013 0.58208 0.68233 -0.22700
C 	C 	0.11984 0.55764 0.73286 -0.03700
C 	C 	0.08962 0.55851 0.75732 -0.00800
C 	C 	0.08324 0.53185 0.78579 0.44100
F 	F 	0.04832 0.53396 0.80249 -0.35400
F 	F 	0.07854 0.49741 0.76699 -0.41700
C 	C 	0.11821 0.53921 0.81755 0.36900
F 	F 	0.13477 0.57545 0.82427 -0.35800
F 	F 	0.10394 0.52935 0.85094 -0.31300
C 	C 	0.06735 0.58587 0.75667 0.03800
H 	H 	0.11414 0.63281 0.69186 0.11400
H 	H 	0.16402 0.60497 0.66557 0.15000
H 	H 	0.15223 0.55710 0.66217 0.13200
H 	H 	0.18876 0.58255 0.69912 0.13800
H 	H 	0.13734 0.53688 0.73318 0.06700
H 	H 	0.04497 0.58796 0.77631 0.11200
C 	C 	0.10060 0.08110 0.30735 -0.04600
C 	C 	0.06206 0.06915 0.31711 -0.03600
C 	C 	0.03895 0.09409 0.32961 0.08700
C 	C 	-0.00176 0.08199 0.34183 -0.20900
C 	C 	0.05441 0.13088 0.33164 -0.02800
C 	C 	0.09214 0.14312 0.31944 0.00100
C 	C 	0.11057 0.18230 0.31838 0.44200
F 	F 	0.14709 0.18948 0.33984 -0.34800
F 	F 	0.11758 0.18680 0.28125 -0.36800
C 	C 	0.08700 0.21066 0.33344 0.37500
F 	F 	0.07948 0.20696 0.37059 -0.36500
F 	F 	0.11044 0.24416 0.33326 -0.29000
C 	C 	0.11489 0.11775 0.30776 0.03700
H 	H 	0.05085 0.04076 0.31670 0.07800
H 	H 	-0.00962 0.05237 0.33998 0.10800
H 	H 	-0.02418 0.09128 0.32337 0.10000
H 	H 	-0.00285 0.09366 0.37165 0.11200
H 	H 	0.03652 0.14938 0.34266 0.08200
H 	H 	0.14453 0.12674 0.29958 0.10700
C 	C 	0.41754 0.73348 0.39117 -0.04500
C 	C 	0.43019 0.76458 0.41698 -0.04500
C 	C 	0.41201 0.76928 0.45079 0.09600
C 	C 	0.42350 0.80343 0.47760 -0.22400
C 	C 	0.38301 0.74149 0.45989 -0.03800
C 	C 	0.37155 0.70930 0.43523 -0.01000
C 	C 	0.34399 0.67764 0.44734 0.43900
F 	F 	0.34909 0.64618 0.42660 -0.36500
F 	F 	0.35415 0.67497 0.48512 -0.38600
C 	C 	0.29985 0.68043 0.44116 0.35900
F 	F 	0.29198 0.69027 0.40557 -0.37200
F 	F 	0.27643 0.64716 0.44249 -0.33100
C 	C 	0.38784 0.70621 0.40013 0.03800
H 	H 	0.45377 0.78516 0.41046 0.09500
H 	H 	0.44598 0.82332 0.46651 0.15600
H 	H 	0.43593 0.79776 0.50538 0.11400
H 	H 	0.39682 0.81543 0.48178 0.10500
H 	H 	0.37005 0.74470 0.48661 0.08000
H 	H 	0.37869 0.68194 0.38032 0.09900
C 	C 	0.83870 0.54414 0.12866 -0.04500
C 	C 	0.86060 0.52459 0.10538 -0.04400
C 	C 	0.86982 0.53459 0.07004 0.09300
C 	C 	0.89215 0.51303 0.04463 -0.21600
C 	C 	0.85827 0.56515 0.05846 -0.02900
C 	C 	0.83761 0.58599 0.08193 0.01600
C 	C 	0.82864 0.62083 0.07032 0.43500
F 	F 	0.83354 0.64626 0.10211 -0.36600
F 	F 	0.85599 0.63370 0.04588 -0.40300
C 	C 	0.78588 0.61619 0.05092 0.37700
F 	F 	0.77609 0.58390 0.02727 -0.37400
F 	F 	0.75911 0.61607 0.07817 -0.33100
C 	C 	0.82676 0.57459 0.11659 0.02600
H 	H 	0.86974 0.50101 0.11438 0.06900
H 	H 	0.89860 0.48928 0.05728 0.10400
H 	H 	0.92080 0.52988 0.03975 0.12100
H 	H 	0.87421 0.50357 0.01696 0.11400
H 	H 	0.86573 0.57276 0.03112 0.11600
H 	H 	0.80995 0.58985 0.13447 0.11200
C 	C 	0.47631 0.17613 0.66658 -0.13200
C 	C 	0.43694 0.15960 0.65395 -0.00400
C 	C 	0.42846 0.13658 0.61974 0.06100
C 	C 	0.38737 0.11495 0.60844 -0.19800
C 	C 	0.45910 0.13243 0.59670 -0.00700
C 	C 	0.49843 0.15084 0.60770 -0.02500
C 	C 	0.53236 0.14658 0.58339 0.44600
F 	F 	0.56357 0.17531 0.59411 -0.39300
F 	F 	0.54618 0.11628 0.59133 -0.41400
C 	C 	0.52130 0.14526 0.54007 0.36000
F 	F 	0.49246 0.16541 0.53385 -0.42400
F 	F 	0.55449 0.16040 0.52371 -0.35800
C 	C 	0.50680 0.17152 0.64357 0.06700
H 	H 	0.41326 0.16296 0.67176 0.04200
H 	H 	0.36613 0.12138 0.62906 0.09200
H 	H 	0.38842 0.08606 0.60746 0.10200
H 	H 	0.37625 0.12014 0.57999 0.09500
H 	H 	0.45180 0.11475 0.57035 0.07000
H 	H 	0.53712 0.18430 0.65374 0.08200
C 	C 	0.36389 0.84015 0.55040 -0.07200
C 	C 	0.39132 0.82666 0.57310 -0.03400
C 	C 	0.42771 0.84823 0.58827 0.09400
C 	C 	0.45760 0.83341 0.61132 -0.21800
C 	C 	0.43681 0.88376 0.58093 -0.02900
C 	C 	0.41009 0.89785 0.55801 0.00500
C 	C 	0.42270 0.93465 0.54580 0.44700
F 	F 	0.39098 0.95236 0.54619 -0.40200
F 	F 	0.45330 0.95504 0.57090 -0.42300
C 	C 	0.43640 0.93063 0.50552 0.30600
F 	F 	0.45948 0.90484 0.50277 -0.43300
F 	F 	0.40335 0.91904 0.47946 -0.37800
C 	C 	0.37358 0.87584 0.54285 0.04000
H 	H 	0.38458 0.79912 0.57878 0.08500
H 	H 	0.44655 0.80489 0.61451 0.11600
H 	H 	0.46409 0.84909 0.63998 0.12400
H 	H 	0.48553 0.83530 0.59713 0.11700
H 	H 	0.46541 0.89995 0.59219 0.11900
H 	H 	0.35329 0.88622 0.52437 0.09700
C 	C 	0.93695 0.37378 0.20774 -0.04400
C 	C 	0.95798 0.40927 0.21322 -0.03400
C 	C 	0.94016 0.43700 0.22882 0.07400
C 	C 	0.96247 0.47501 0.23517 -0.20300
C 	C 	0.90142 0.42909 0.23960 -0.03500
C 	C 	0.87963 0.39378 0.23411 -0.02700
C 	C 	0.83885 0.38506 0.24887 0.44900
F 	F 	0.82963 0.34885 0.25232 -0.37400
F 	F 	0.83993 0.40324 0.28498 -0.38500
C 	C 	0.80539 0.39388 0.22216 0.35500
F 	F 	0.80959 0.38061 0.18514 -0.38000
F 	F 	0.76898 0.37672 0.23142 -0.30200
C 	C 	0.89757 0.36633 0.21738 0.03000
H 	H 	0.98847 0.41528 0.20608 0.08300
H 	H 	0.99319 0.47720 0.22661 0.10000
H 	H 	0.96427 0.48560 0.26569 0.09200
H 	H 	0.94660 0.49165 0.21834 0.08800
H 	H 	0.88900 0.45059 0.25331 0.07100
H 	H 	0.88167 0.33884 0.21350 0.10100
C 	C 	0.17153 0.17607 0.94466 -0.05200
C 	C 	0.16055 0.18117 0.90734 -0.02800
C 	C 	0.12785 0.15831 0.88627 0.08900
C 	C 	0.11670 0.16256 0.84580 -0.20900
C 	C 	0.10579 0.13070 0.90293 -0.03200
C 	C 	0.11594 0.12558 -0.05933 0.01900
C 	C 	0.08904 0.09778 -0.04088 0.44400
F 	F 	0.06290 0.11515 -0.02173 -0.40200
F 	F 	0.06664 0.07249 -0.06900 -0.41900
C 	C 	0.11090 0.07782 -0.01282 0.34900
F 	F 	0.14437 0.06846 -0.02746 -0.35700
F 	F 	0.12227 0.09953 0.02148 -0.35800
C 	C 	0.14877 0.14891 -0.03856 0.03800
H 	H 	0.17824 0.20212 0.89435 0.07000
H 	H 	0.13524 0.18665 0.83706 0.10000
H 	H 	0.08502 0.16511 0.84209 0.10300
H 	H 	0.12087 0.13864 0.82697 0.10700
H 	H 	0.08018 0.11369 0.88636 0.10600
H 	H 	0.15673 0.14630 -0.00927 0.13500
C 	C 	0.44876 0.22501 0.86874 -0.06200
C 	C 	0.45025 0.25762 0.89132 -0.02500
C 	C 	0.42823 0.25915 0.92286 0.06700
C 	C 	0.43027 0.29404 0.94744 -0.20000
C 	C 	0.40518 0.22758 0.93206 -0.02000
C 	C 	0.40303 0.19463 0.90924 -0.02000
C 	C 	0.37931 0.16022 0.92000 0.44700
F 	F 	0.38728 0.13087 0.89743 -0.36700
F 	F 	0.39175 0.15693 0.95708 -0.40100
C 	C 	0.33384 0.15890 0.91519 0.35000
F 	F 	0.32390 0.17383 0.88306 -0.38600
F 	F 	0.31410 0.12352 0.91047 -0.33000
C 	C 	0.42466 0.19387 0.87718 0.04900
H 	H 	0.46882 0.28166 0.88458 0.04900
H 	H 	0.44748 0.31681 0.93521 0.11100
H 	H 	0.44522 0.29286 0.97570 0.08900
H 	H 	0.39977 0.29912 0.95060 0.10800
H 	H 	0.38938 0.22872 0.95725 0.05700
H 	H 	0.42409 0.16890 0.85932 0.08900
C 	C 	0.90365 0.58425 0.42236 -0.03400
C 	C 	0.91794 0.62035 0.41919 -0.05300
C 	C 	0.89728 0.63825 0.39456 0.09200
C 	C 	0.91223 0.67691 0.39099 -0.21900
C 	C 	0.86180 0.62004 0.37356 -0.03400
C 	C 	0.84652 0.58409 0.37709 0.01000
C 	C 	0.80562 0.56554 0.35846 0.45300
F 	F 	0.78731 0.54357 0.38305 -0.39900
F 	F 	0.78234 0.59084 0.35282 -0.38100
C 	C 	0.80753 0.54305 0.31985 0.31600
F 	F 	0.82185 0.56572 0.29427 -0.46900
F 	F 	0.83307 0.51942 0.32422 -0.43200
C 	C 	0.86823 0.56627 0.40098 0.02200
H 	H 	0.94530 0.63438 0.43547 0.08000
H 	H 	0.94116 0.68755 0.40801 0.10700
H 	H 	0.89033 0.69298 0.40101 0.11700
H 	H 	0.91619 0.68013 0.36090 0.10900
H 	H 	0.84583 0.63419 0.35499 0.11600
H 	H 	0.85680 0.53853 0.40381 0.10600
C 	C 	0.47454 0.57888 0.10916 -0.03000
C 	C 	0.50431 0.57766 0.13779 -0.04500
C 	C 	0.50777 0.59979 0.17250 0.08900
C 	C 	0.53879 0.59782 0.20366 -0.21700
C 	C 	0.48135 0.62337 0.17849 -0.03300
C 	C 	0.45149 0.62529 0.15004 -0.00400
C 	C 	0.42153 0.64969 0.15718 0.46100
F 	F 	0.39425 0.64537 0.12553 -0.35500
F 	F 	0.39998 0.63889 0.18663 -0.39400
C 	C 	0.44128 0.69015 0.16535 0.29300
F 	F 	0.47409 0.69634 0.14494 -0.41600
F 	F 	0.41450 0.71011 0.15247 -0.34800
C 	C 	0.44867 0.60295 0.11530 0.03300
H 	H 	0.52427 0.55899 0.13342 0.11800
H 	H 	0.55744 0.57804 0.19484 0.14200
H 	H 	0.52406 0.58965 0.22888 0.10600
H 	H 	0.55844 0.62449 0.21153 0.10800
H 	H 	0.48403 0.63979 0.20559 0.06200
H 	H 	0.42564 0.60346 0.09312 0.11600
C 	C 	0.86384 0.94599 0.70166 -0.07200
C 	C 	0.87643 0.93981 0.66521 -0.02700
C 	C 	0.89320 0.90983 0.65465 0.07600
C 	C 	0.90753 0.90351 0.61610 -0.20600
C 	C 	0.89652 0.88529 0.68032 -0.02100
C 	C 	0.88383 0.89054 0.71671 -0.01400
C 	C 	0.88561 0.86207 0.74287 0.43500
F 	F 	0.86514 0.86937 0.77412 -0.36500
F 	F 	0.86609 0.82919 0.72402 -0.39600
C 	C 	0.92887 0.86016 0.75745 0.37400
F 	F 	0.95231 0.89406 0.76286 -0.40800
F 	F 	0.92807 0.84756 0.79229 -0.37800
C 	C 	0.86814 0.92153 0.72749 0.03700
H 	H 	0.87356 0.95857 0.64508 0.05700
H 	H 	0.90177 0.92422 0.59815 0.09500
H 	H 	0.89214 0.87686 0.60152 0.10400
H 	H 	0.94006 0.90405 0.61923 0.10900
H 	H 	0.90850 0.86169 0.67166 0.06900
H 	H 	0.85833 0.92631 0.75549 0.09500
C 	C 	0.05428 0.58548 0.44136 -0.09100
C 	C 	0.02759 0.59500 0.41433 -0.01000
C 	C 	0.03828 0.62589 0.39695 0.07600
C 	C 	0.00967 0.63623 0.36837 -0.20200
C 	C 	0.07607 0.64734 0.40634 -0.01400
C 	C 	0.10274 0.63927 0.43436 0.00700
C 	C 	0.14257 0.66438 0.44568 0.45000
F 	F 	0.16719 0.64837 0.46791 -0.38400
F 	F 	0.16111 0.67130 0.41330 -0.38600
C 	C 	0.13695 0.69995 0.46783 0.34500
F 	F 	0.11436 0.71738 0.44525 -0.37300
F 	F 	0.11715 0.69283 0.49946 -0.34300
C 	C 	0.09157 0.60809 0.45169 0.06000
H 	H 	-0.00132 0.57802 0.40611 0.04900
H 	H 	-0.01958 0.61762 0.36489 0.08600
H 	H 	0.02201 0.63596 0.34043 0.10300
H 	H 	0.00477 0.66357 0.37782 0.10200
H 	H 	0.08456 0.67059 0.39192 0.11700
H 	H 	0.11187 0.60121 0.47303 0.10900
C 	C 	0.30257 0.90463 0.21410 -0.01300
C 	C 	0.27259 0.87945 0.22629 -0.03900
C 	C 	0.28128 0.84855 0.23962 0.09500
C 	C 	0.24995 0.82305 0.25533 -0.21900
C 	C 	0.31998 0.84212 0.23960 -0.02700
C 	C 	0.35033 0.86635 0.22653 0.01500
C 	C 	0.39148 0.85733 0.22578 0.44300
F 	F 	0.41948 0.88742 0.22195 -0.38700
F 	F 	0.40147 0.84599 0.26011 -0.41000
C 	C 	0.39236 0.82775 0.19250 0.36900
F 	F 	0.36151 0.79894 0.19281 -0.38000
F 	F 	0.38772 0.84168 0.15863 -0.36600
C 	C 	0.34157 0.89816 0.21445 0.03800
H 	H 	0.24270 0.88473 0.22713 0.08600
H 	H 	0.22123 0.83248 0.25520 0.12200
H 	H 	0.25984 0.82053 0.28507 0.09800
H 	H 	0.24508 0.79635 0.23811 0.12600
H 	H 	0.32653 0.81816 0.25010 0.10300
H 	H 	0.36464 0.91750 0.20489 0.11600
C 	C 	1.01991 0.87959 0.90217 0.00700
C 	C 	0.98176 0.85834 0.89587 -0.05600
C 	C 	0.97324 0.82835 0.86825 0.15700
C 	C 	0.93233 0.80532 0.86317 -0.23400
C 	C 	1.00327 0.81975 0.84626 -0.02400
C 	C 	0.04161 0.84152 0.85100 0.01200
C 	C 	0.07522 0.83144 0.82874 0.45700
F 	F 	0.10696 0.86020 0.83331 -0.34900
F 	F 	0.08868 0.80395 0.84449 -0.37300
C 	C 	0.06379 0.82100 0.78528 0.31300
F 	F 	1.04152 0.84448 0.77282 -0.40600
F 	F 	0.09819 0.82478 0.76689 -0.33200
C 	C 	0.04951 0.87141 0.87945 0.02900
H 	H 	0.95850 0.86550 0.91211 0.14300
H 	H 	0.90946 0.82211 0.85993 0.17000
H 	H 	0.92724 0.79128 0.88848 0.16100
H 	H 	0.92860 0.78504 0.83765 0.15100
H 	H 	0.99646 0.79591 0.82590 0.08700
H 	H 	0.07915 0.88760 0.88524 0.11800
C 	C 	0.17242 0.85198 0.55340 -0.03500
C 	C 	0.16772 0.88480 0.54152 -0.03300
C 	C 	0.14231 0.90498 0.55889 0.09800
C 	C 	0.13716 0.93995 0.54602 -0.21300
C 	C 	0.12115 0.89213 0.58821 -0.02400
C 	C 	0.12520 0.85924 0.60041 0.01900
C 	C 	0.10095 0.84524 0.63131 0.44100
F 	F 	0.12111 0.82334 0.65044 -0.36600
F 	F 	0.09658 0.87370 0.65741 -0.38800
C 	C 	0.05944 0.82398 0.61456 0.36900
F 	F 	0.04026 0.84477 0.59299 -0.38600
F 	F 	0.06383 0.79365 0.59144 -0.36700
C 	C 	0.15119 0.83933 0.58290 0.03700
H 	H 	0.18379 0.89468 0.51858 0.08200
H 	H 	0.15500 0.94620 0.52201 0.11100
H 	H 	0.14679 0.96190 0.56982 0.10500
H 	H 	0.10537 0.93875 0.53660 0.11600
H 	H 	0.10115 0.90766 0.60122 0.11000
H 	H 	0.15411 0.81365 0.59145 0.11800
C 	C 	0.10593 0.47881 0.58328 -0.03200
C 	C 	0.07799 0.47695 0.61005 -0.02700
C 	C 	0.09017 0.47901 0.64863 0.09900
C 	C 	0.05994 0.47840 0.67702 -0.22100
C 	C 	0.13079 0.48274 0.66055 -0.03400
C 	C 	0.15934 0.48358 0.63400 -0.01000
C 	C 	0.20377 0.49051 0.64690 0.45400
F 	F 	0.22489 0.48644 0.61551 -0.39600
F 	F 	0.21470 0.52589 0.66299 -0.46400
C 	C 	0.21610 0.46533 0.67505 0.29800
F 	F 	0.19004 0.43257 0.66859 -0.38400
F 	F 	0.25362 0.45879 0.66886 -0.42000
C 	C 	0.14631 0.48155 0.59522 0.03800
H 	H 	0.04677 0.47500 0.60098 0.09700
H 	H 	0.02910 0.47200 0.66296 0.12200
H 	H 	0.06394 0.50506 0.69395 0.12800
H 	H 	0.06333 0.45792 0.69599 0.14200
H 	H 	0.13999 0.48521 0.69047 0.07500
H 	H 	0.16754 0.48316 0.57416 0.09800
C 	C 	0.59247 0.74045 0.17350 -0.03100
C 	C 	0.58723 0.70340 0.16313 -0.03600
C 	C 	0.61740 0.68869 0.14656 0.11700
C 	C 	0.61190 0.64887 0.13650 -0.22600
C 	C 	0.65157 0.71160 0.13795 -0.02700
C 	C 	0.65621 0.74894 0.14734 0.01800
C 	C 	0.68851 0.77497 0.13266 0.44100
F 	F 	0.71006 0.79696 0.16368 -0.35800
F 	F 	0.71490 0.75671 0.11481 -0.38700
C 	C 	0.67048 0.79846 0.10524 0.36100
F 	F 	0.62925 0.79217 0.10258 -0.41400
F 	F 	0.68381 0.83438 0.11877 -0.35300
C 	C 	0.62790 0.76267 0.16797 0.04000
H 	H 	0.55943 0.68618 0.16710 0.07100
H 	H 	0.58486 0.63898 0.11641 0.12500
H 	H 	0.60837 0.63572 0.16255 0.12600
H 	H 	0.63784 0.64118 0.12312 0.16300
H 	H 	0.67370 0.70038 0.12304 0.15200
H 	H 	0.63116 0.79139 0.17532 0.09700
C 	C 	0.66551 0.33071 0.41712 -0.04200
C 	C 	0.63000 0.34149 0.42607 -0.02900
C 	C 	0.61020 0.35986 0.40129 0.08200
C 	C 	0.57168 0.37060 0.41033 -0.20500
C 	C 	0.62616 0.36772 0.36742 -0.02400
C 	C 	0.66144 0.35684 0.35774 -0.00800
C 	C 	0.67777 0.36345 0.32017 0.44400
F 	F 	0.69132 0.33315 0.30571 -0.35400
F 	F 	0.64754 0.36773 0.29404 -0.41600
C 	C 	0.71253 0.39635 0.32441 0.35500
F 	F 	0.73236 0.40259 0.36050 -0.38400
F 	F 	0.73981 0.38944 0.29912 -0.30200
C 	C 	0.68108 0.33855 0.38297 0.04700
H 	H 	0.61760 0.33539 0.45222 0.08000
H 	H 	0.56206 0.36165 0.43734 0.10000
H 	H 	0.54804 0.35831 0.38724 0.10200
H 	H 	0.57519 0.40018 0.41286 0.09600
H 	H 	0.61077 0.38206 0.34855 0.07700
H 	H 	0.70847 0.33028 0.37582 0.10200
C 	C 	0.70138 0.50214 0.17677 -0.09100
C 	C 	0.72760 0.49043 0.15206 0.00900
C 	C 	0.72094 0.49033 0.11280 0.07700
C 	C 	0.75013 0.47911 0.08672 -0.20000
C 	C 	0.68634 0.50018 0.09778 -0.00600
C 	C 	0.65887 0.51098 0.12182 -0.00200
C 	C 	0.61986 0.51885 0.10545 0.44800
F 	F 	0.60824 0.54476 0.13031 -0.39500
F 	F 	0.62607 0.53381 0.07215 -0.41800
C 	C 	0.58622 0.48452 0.09857 0.33600
F 	F 	0.59977 0.45475 0.10911 -0.39000
F 	F 	0.55531 0.48975 0.12021 -0.35200
C 	C 	0.66689 0.51225 0.16123 0.06400
H 	H 	0.75300 0.48100 0.16313 -0.00600
H 	H 	0.77598 0.47207 0.10268 0.09200
H 	H 	0.76141 0.50138 0.07054 0.11300
H 	H 	0.73529 0.45537 0.06655 0.10700
H 	H 	0.68054 0.49874 0.06732 0.10200
H 	H 	0.64546 0.52010 0.17974 0.10500
C 	C 	1.01252 0.39613 0.39314 -0.01800
C 	C 	0.97370 0.39352 0.37666 -0.02800
C 	C 	0.95943 0.36943 0.34392 0.09200
C 	C 	0.91779 0.36635 0.32624 -0.21200
C 	C 	0.98486 0.34916 0.32654 -0.03000
C 	C 	0.02456 0.35232 0.34199 -0.00900
C 	C 	0.05547 0.33465 0.32237 0.45400
F 	F 	0.08999 0.36030 0.32411 -0.35700
F 	F 	0.06443 0.30812 0.34289 -0.34600
C 	C 	0.04470 0.31955 0.27985 0.32300
F 	F 	0.03411 0.34625 0.26075 -0.42900
F 	F 	0.07822 0.31039 0.26515 -0.34600
C 	C 	0.03721 0.37466 0.37648 0.04000
H 	H 	0.95492 0.41077 0.38884 0.10500
H 	H 	0.90171 0.38504 0.34210 0.13500
H 	H 	0.90105 0.33856 0.32566 0.11400
H 	H 	0.91894 0.37292 0.29684 0.11300
H 	H 	0.97332 0.33195 0.30057 0.06600
H 	H 	0.06762 0.37752 0.38877 0.10600
C 	C 	0.57951 0.12966 0.80531 -0.04400
C 	C 	0.55547 0.09540 0.80181 -0.02500
C 	C 	0.57100 0.06625 0.81212 0.08700
C 	C 	0.54502 0.02971 0.80849 -0.20600
C 	C 	0.61086 0.07144 0.82670 -0.02200
C 	C 	0.63628 0.10505 0.82881 -0.00200
C 	C 	0.67958 0.11013 0.84519 0.44800
F 	F 	0.69361 0.14599 0.85862 -0.35400
F 	F 	0.68166 0.09132 0.87606 -0.39700
C 	C 	0.70734 0.09825 0.81571 0.36000
F 	F 	0.69680 0.10814 0.78081 -0.34900
F 	F 	0.74609 0.11563 0.82734 -0.30700
C 	C 	0.62022 0.13416 0.81761 0.04600
H 	H 	0.52423 0.09148 0.79176 0.07900
H 	H 	0.51441 0.02972 0.79600 0.10900
H 	H 	0.54303 0.02064 0.83688 0.09900
H 	H 	0.55788 0.01044 0.78979 0.10100
H 	H 	0.62164 0.04920 0.83705 0.07700
H 	H 	0.63892 0.16046 0.81961 0.11200
C 	C 	0.27877 0.33822 0.91861 -0.03800
C 	C 	0.29458 0.33367 0.88352 -0.03000
C 	C 	0.29636 0.36033 0.85940 0.09200
C 	C 	0.31237 0.35527 0.82144 -0.20900
C 	C 	0.28281 0.39192 0.87085 -0.02100
C 	C 	0.26702 0.39682 0.90595 0.00300
C 	C 	0.25051 0.43007 0.91758 0.44100
F 	F 	0.24561 0.43300 0.95604 -0.34800
F 	F 	0.27788 0.45993 0.91228 -0.35900
C 	C 	0.20969 0.42898 0.89537 0.37000
F 	F 	0.18967 0.39393 0.88514 -0.38700
F 	F 	0.18631 0.44595 0.91869 -0.31900
C 	C 	0.26500 0.36969 0.92949 0.04200
H 	H 	0.30495 0.30923 0.87478 0.07300
H 	H 	0.32123 0.32882 0.81603 0.09600
H 	H 	0.33882 0.37652 0.82017 0.12100
H 	H 	0.28918 0.35690 0.79872 0.09000
H 	H 	0.28439 0.41257 0.85234 0.08600
H 	H 	0.25238 0.37287 0.95637 0.12100
C 	C 	0.98449 0.67419 0.66052 -0.14700
C 	C 	0.94456 0.65817 0.64942 0.00900
C 	C 	0.93488 0.62550 0.62532 0.04700
C 	C 	0.89232 0.60808 0.61317 -0.18600
C 	C 	0.96533 0.60930 0.61145 0.00000
C 	C 	0.00546 0.62513 0.62153 -0.04000
C 	C 	0.03795 0.60773 0.60480 0.45000
F 	F 	0.07471 0.62473 0.62298 -0.38400
F 	F 	0.03236 0.57243 0.61191 -0.42500
C 	C 	0.03944 0.60987 0.56153 0.36800
F 	F 	0.03213 0.64272 0.55333 -0.36500
F 	F 	0.07745 0.60760 0.55222 -0.34400
C 	C 	0.01474 0.65730 0.64689 0.07900
H 	H 	0.92108 0.67132 0.65921 0.03700
H 	H 	0.87131 0.62388 0.62579 0.08700
H 	H 	0.88616 0.58094 0.62214 0.08000
H 	H 	0.88691 0.60548 0.58178 0.08200
H 	H 	0.95765 0.58439 0.59245 0.03900
H 	H 	0.04546 0.67040 0.65455 0.07800
C 	C 	0.52473 0.62467 0.31051 -0.05500
C 	C 	0.50276 0.59121 0.31562 -0.03400
C 	C 	0.52216 0.56300 0.32217 0.07900
C 	C 	0.49875 0.52721 0.32793 -0.20600
C 	C 	0.56383 0.56846 0.32387 -0.02900
C 	C 	0.58634 0.60201 0.31937 -0.00900
C 	C 	0.63153 0.60836 0.32271 0.44300
F 	F 	0.64682 0.64479 0.32526 -0.36200
F 	F 	0.64505 0.59757 0.35624 -0.38400
C 	C 	0.64746 0.58926 0.28788 0.36400
F 	F 	0.62196 0.58787 0.25559 -0.40700
F 	F 	0.68388 0.60928 0.28203 -0.33400
C 	C 	0.56633 0.62978 0.31210 0.03400
H 	H 	0.47059 0.58710 0.31447 0.07900
H 	H 	0.46630 0.52717 0.32647 0.10500
H 	H 	0.50826 0.52054 0.35625 0.10000
H 	H 	0.50405 0.50631 0.30568 0.09400
H 	H 	0.57861 0.54665 0.32917 0.06900
H 	H 	0.58305 0.65568 0.30803 0.10200
C 	C 	0.70496 1.00412 0.67894 -0.16800
C 	C 	0.72658 0.00055 0.64741 0.04000
C 	C 	0.70691 -0.00355 0.61068 0.03900
C 	C 	0.72831 -0.01126 0.57644 -0.18100
C 	C 	0.66583 -0.00379 0.60598 0.01700
C 	C 	0.64415 0.99988 0.63765 -0.04400
C 	C 	0.59900 0.99254 0.63365 0.45200
F 	F 	0.58460 1.00145 0.66816 -0.37900
F 	F 	0.58636 0.01479 0.60930 -0.42300
C 	C 	0.58158 0.95222 0.61943 0.36400
F 	F 	0.60928 0.93078 0.62544 -0.39900
F 	F 	0.54919 0.94037 0.63887 -0.35500
C 	C 	0.66452 1.00575 0.67367 0.11800
H 	H 	0.75760 -0.00143 0.65134 0.00400
H 	H 	0.76014 -0.01143 0.58437 0.07600
H 	H 	0.72612 0.00921 0.55717 0.08000
H 	H 	0.71431 0.96198 0.56119 0.09300
H 	H 	0.65046 -0.00866 0.57775 0.06100
H 	H 	0.64797 1.00823 0.69826 0.07800
C 	C 	0.51986 0.31864 0.82441 -0.13000
C 	C 	0.54044 0.31239 0.85760 0.00600
C 	C 	0.54158 0.33532 0.89151 0.04700
C 	C 	0.56022 0.32720 0.92808 -0.18700
C 	C 	0.52387 0.36554 0.89152 -0.00400
C 	C 	0.50606 0.37383 0.85775 -0.03500
C 	C 	0.48909 0.40784 0.85715 0.45000
F 	F 	0.46998 0.40847 0.82168 -0.36600
F 	F 	0.46054 0.40767 0.88277 -0.40400
C 	C 	0.52188 0.44217 0.86631 0.35200
F 	F 	0.55615 0.43696 0.84992 -0.37700
F 	F 	0.50880 0.47031 0.85143 -0.34800
C 	C 	0.50360 0.34969 0.82456 0.07600
H 	H 	0.55377 0.28891 0.85759 0.03500
H 	H 	0.57259 0.30235 0.92390 0.09000
H 	H 	0.53746 0.32362 0.94868 0.07900
H 	H 	0.58468 0.34976 0.94004 0.08800
H 	H 	0.52395 0.38242 0.91796 0.05500
H 	H 	0.48872 0.35477 0.79851 0.08200
C 	C 	0.42352 0.53702 0.90852 -0.03200
C 	C 	0.45247 0.54716 0.88400 -0.02800
C 	C 	0.44216 0.56061 0.85047 0.09900
C 	C 	0.47313 0.57221 0.82447 -0.21800
C 	C 	0.40288 0.56474 0.84192 -0.02500
C 	C 	0.37360 0.55562 0.86664 -0.01300
C 	C 	0.33291 0.56580 0.86087 0.46400
F 	F 	0.32446 0.58192 0.89538 -0.34800
F 	F 	0.33349 0.59101 0.83577 -0.40100
C 	C 	0.29887 0.53344 0.84692 0.29800
F 	F 	0.30082 0.50691 0.86966 -0.36900
F 	F 	0.26312 0.54474 0.85050 -0.38800
C 	C 	0.38409 0.54076 0.89948 0.04200
H 	H 	0.48302 0.54468 0.89112 0.08200
H 	H 	0.50284 0.56779 0.83499 0.11900
H 	H 	0.47540 0.60120 0.82241 0.10600
H 	H 	0.46466 0.55692 0.79578 0.13600
H 	H 	0.39560 0.57605 0.81642 0.09300
H 	H 	0.36219 0.53423 0.91929 0.12400
C 	C 	0.56646 0.58364 0.97879 -0.10000
C 	C 	0.54766 0.60715 0.96005 -0.00800
C 	C 	0.56958 0.64008 0.95305 0.06700
C 	C 	0.55002 0.66494 0.93192 -0.19800
C 	C 	0.61037 0.64953 0.96525 -0.01700
C 	C 	0.62937 0.62667 -0.01492 -0.01300
C 	C 	0.67364 0.63673 -0.00205 0.45000
F 	F 	0.68631 0.60879 0.01373 -0.35300
F 	F 	0.69379 0.64170 -0.03392 -0.44700
C 	C 	0.68399 0.67059 0.02797 0.31200
F 	F 	0.65184 0.67296 0.04897 -0.38900
F 	F 	0.71549 0.66839 0.05329 -0.34900
C 	C 	0.60694 0.59390 -0.00817 0.06700
H 	H 	0.51638 0.59952 0.95007 0.06300
H 	H 	0.51792 0.65382 0.92380 0.09500
H 	H 	0.56475 0.66942 0.90568 0.09300
H 	H 	0.55279 0.69099 0.95004 0.09100
H 	H 	0.62729 0.67461 0.95902 0.05700
H 	H 	0.62092 0.57597 0.00721 0.11400
C 	C 	0.83221 0.36085 0.52763 -0.07400
C 	C 	0.82449 0.39333 0.54469 -0.01000
C 	C 	0.85216 0.42520 0.54479 0.06400
C 	C 	0.84451 0.46020 0.56320 -0.19200
C 	C 	0.88708 0.42463 0.52681 -0.00900
C 	C 	0.89523 0.39239 0.50903 -0.00900
C 	C 	0.93083 0.39219 0.48561 0.45000
F 	F 	0.93507 0.35706 0.47571 -0.35800
F 	F 	0.92234 0.40539 0.45203 -0.42600
C 	C 	0.97135 0.41338 0.50643 0.33900
F 	F 	0.97080 0.41317 0.54522 -0.39000
F 	F 	1.00119 0.39575 0.49533 -0.35300
C 	C 	0.86764 0.36050 0.51031 0.05100
H 	H 	0.79696 0.39374 0.55766 0.07100
H 	H 	0.81566 0.45676 0.57590 0.09600
H 	H 	0.84388 0.47894 0.54168 0.07200
H 	H 	0.86871 0.47204 0.58592 0.08300
H 	H 	0.90752 0.44956 0.52664 0.03800
H 	H 	0.87229 0.33537 0.49585 0.11000
C 	C 	0.46292 0.80571 0.31445 -0.12200
C 	C 	0.42184 0.79581 0.31578 0.01900
C 	C 	0.40339 0.81106 0.34557 0.07100
C 	C 	0.35961 0.79954 0.34821 -0.19300
C 	C 	0.42611 0.83762 0.37292 -0.02100
C 	C 	0.46731 0.84879 0.37082 -0.00500
C 	C 	0.49163 0.87983 0.39766 0.43600
F 	F 	0.50864 0.90574 0.37646 -0.38000
F 	F 	0.46669 0.89513 0.42076 -0.39700
C 	C 	0.52505 0.86861 0.42246 0.37200
F 	F 	0.51084 0.83656 0.43572 -0.40800
F 	F 	0.55703 0.86458 0.40192 -0.37900
C 	C 	0.48542 0.83222 0.34162 0.06900
H 	H 	0.40430 0.77651 0.29350 0.05100
H 	H 	0.34561 0.77895 0.32417 0.10500
H 	H 	0.34496 0.82301 0.34767 0.09000
H 	H 	0.35479 0.78805 0.37513 0.09500
H 	H 	0.41138 0.84963 0.39547 0.10100
H 	H 	0.51684 0.84094 0.33901 0.09100
