data_crystal

_cell_length_a 13.74420
_cell_length_b 14.28870
_cell_length_c 14.11780
_cell_angle_alpha 90.00000
_cell_angle_beta  104.91200
_cell_angle_gamma 90.00000

_symmetry_space_group_name_	'P 1'
_symmetry_space_group_name_H-M	'P 1'

loop_
_symmetry_equiv_pos_as_xyz
  x,y,z

loop_
_atom_site_label
_atom_site_type_symbol
_atom_site_fract_x
_atom_site_fract_y
_atom_site_fract_z
_atom_site_charge
Mg	Mg	0.12529 0.20877 0.51738 1.45600
Mg	Mg	0.38341 0.09888 0.55142 1.47800
O 	O 	0.19145 0.22052 0.40448 -0.55300
O 	O 	0.35618 0.18963 0.43698 -0.51000
O 	O 	0.13693 0.49403 0.04613 -0.52700
O 	O 	0.03124 0.41132 0.10807 -0.52300
O 	O 	0.38565 0.20130 0.65092 -0.51500
O 	O 	0.23710 0.27378 0.61779 -0.58600
O 	O 	0.31728 0.57459 0.95772 -0.58100
O 	O 	0.18032 0.50920 0.86580 -0.47700
N 	N 	0.37116 0.31887 0.17735 -0.16700
N 	N 	0.48396 0.34107 0.91229 -0.29000
C 	C 	0.27576 0.22438 0.38628 0.47700
C 	C 	0.27990 0.27669 0.29475 -0.20300
C 	C 	0.36424 0.27390 0.25820 0.12000
H 	H 	0.41920 0.23870 0.29190 0.00200
C 	C 	0.29223 0.37090 0.13069 0.12300
H 	H 	0.29720 0.40460 0.07580 0.00200
C 	C 	0.20354 0.37721 0.15988 -0.21500
C 	C 	0.11645 0.43276 0.09951 0.52300
C 	C 	0.19757 0.32831 0.24281 0.14400
H 	H 	0.13870 0.33000 0.26370 -0.00200
C 	C 	0.32456 0.25948 0.66813 0.49200
C 	C 	0.35959 0.31742 0.75953 -0.21400
C 	C 	0.45061 0.29710 0.82593 0.11700
H 	H 	0.49070 0.25050 0.80980 -0.01700
C 	C 	0.42648 0.40988 0.93231 0.11800
H 	H 	0.44840 0.44120 0.99170 -0.03200
C 	C 	0.33553 0.43730 0.86910 -0.21000
C 	C 	0.27400 0.51340 0.89882 0.43900
C 	C 	0.30124 0.38875 0.78197 0.14100
H 	H 	0.23970 0.40390 0.73910 -0.00900
Mg	Mg	0.37471 0.70877 0.98262 1.45700
Mg	Mg	0.11659 0.59888 0.94858 1.47800
O 	O 	0.30855 0.72052 0.09552 -0.55100
O 	O 	0.14382 0.68963 0.06302 -0.50600
O 	O 	0.36307 0.99403 0.45387 -0.52900
O 	O 	0.46876 0.91132 0.39193 -0.52600
O 	O 	0.11435 0.70130 0.84908 -0.51800
O 	O 	0.26290 0.77378 0.88221 -0.58700
O 	O 	0.18272 0.07459 0.54228 -0.58000
O 	O 	0.31968 0.00920 0.63420 -0.47500
N 	N 	0.12884 0.81887 0.32265 -0.16600
N 	N 	0.01604 0.84107 0.58771 -0.29100
C 	C 	0.22424 0.72438 0.11372 0.47700
C 	C 	0.22010 0.77669 0.20525 -0.20200
C 	C 	0.13576 0.77390 0.24180 0.12000
H 	H 	0.08080 0.73870 0.20810 0.00300
C 	C 	0.20777 0.87090 0.36931 0.12400
H 	H 	0.20280 0.90460 0.42420 0.00100
C 	C 	0.29646 0.87721 0.34012 -0.21600
C 	C 	0.38355 0.93276 0.40049 0.52400
C 	C 	0.30243 0.82831 0.25719 0.14400
H 	H 	0.36130 0.83000 0.23630 -0.00200
C 	C 	0.17544 0.75948 0.83187 0.49200
C 	C 	0.14041 0.81742 0.74047 -0.21500
C 	C 	0.04939 0.79710 0.67407 0.11600
H 	H 	0.00930 0.75050 0.69020 -0.01900
C 	C 	0.07352 0.90988 0.56769 0.11700
H 	H 	0.05160 0.94120 0.50830 -0.03200
C 	C 	0.16447 0.93730 0.63090 -0.20900
C 	C 	0.22600 0.01340 0.60118 0.43700
C 	C 	0.19876 0.88875 0.71803 0.14100
H 	H 	0.26030 0.90390 0.76090 -0.00900
Mg	Mg	0.87471 0.79123 0.48262 1.45700
Mg	Mg	0.61659 0.90112 0.44858 1.47900
O 	O 	0.80855 0.77948 0.59552 -0.55300
O 	O 	0.64382 0.81037 0.56302 -0.51000
O 	O 	0.86307 0.50597 0.95387 -0.52700
O 	O 	0.96876 0.58868 0.89193 -0.52300
O 	O 	0.61435 0.79870 0.34908 -0.51500
O 	O 	0.76290 0.72622 0.38221 -0.58600
O 	O 	0.68272 0.42541 0.04228 -0.58100
O 	O 	0.81968 0.49080 0.13420 -0.47700
N 	N 	0.62884 0.68113 0.82265 -0.16700
N 	N 	0.51604 0.65893 0.08771 -0.29000
C 	C 	0.72424 0.77562 0.61372 0.47700
C 	C 	0.72010 0.72331 0.70525 -0.20300
C 	C 	0.63576 0.72610 0.74180 0.12000
H 	H 	0.58080 0.76130 0.70810 0.00200
C 	C 	0.70777 0.62910 0.86931 0.12300
H 	H 	0.70280 0.59540 0.92420 0.00200
C 	C 	0.79646 0.62279 0.84012 -0.21500
C 	C 	0.88355 0.56724 0.90049 0.52300
C 	C 	0.80243 0.67169 0.75719 0.14400
H 	H 	0.86130 0.67000 0.73630 -0.00200
C 	C 	0.67544 0.74052 0.33187 0.49200
C 	C 	0.64041 0.68258 0.24047 -0.21400
C 	C 	0.54939 0.70290 0.17407 0.11700
H 	H 	0.50930 0.74950 0.19020 -0.01700
C 	C 	0.57352 0.59012 0.06769 0.11800
H 	H 	0.55160 0.55880 0.00830 -0.03200
C 	C 	0.66447 0.56270 0.13090 -0.21000
C 	C 	0.72600 0.48660 0.10118 0.43900
C 	C 	0.69876 0.61125 0.21803 0.14100
H 	H 	0.76030 0.59610 0.26090 -0.00900
Mg	Mg	0.62529 0.29123 0.01738 1.45700
Mg	Mg	0.88341 0.40112 0.05142 1.47800
O 	O 	0.69145 0.27948 0.90448 -0.55100
O 	O 	0.85618 0.31037 0.93698 -0.50600
O 	O 	0.63693 0.00597 0.54613 -0.52900
O 	O 	0.53124 0.08868 0.60807 -0.52600
O 	O 	0.88565 0.29870 0.15092 -0.51800
O 	O 	0.73710 0.22622 0.11779 -0.58700
O 	O 	0.81728 0.92541 0.45772 -0.58000
O 	O 	0.68032 0.99080 0.36580 -0.47500
N 	N 	0.87116 0.18113 0.67735 -0.16600
N 	N 	0.98396 0.15893 0.41229 -0.29100
C 	C 	0.77576 0.27562 0.88628 0.47700
C 	C 	0.77990 0.22331 0.79475 -0.20200
C 	C 	0.86424 0.22610 0.75820 0.12000
H 	H 	0.91920 0.26130 0.79190 0.00300
C 	C 	0.79223 0.12910 0.63069 0.12400
H 	H 	0.79720 0.09540 0.57580 0.00100
C 	C 	0.70354 0.12279 0.65988 -0.21600
C 	C 	0.61645 0.06724 0.59951 0.52400
C 	C 	0.69757 0.17169 0.74281 0.14400
H 	H 	0.63870 0.17000 0.76370 -0.00200
C 	C 	0.82456 0.24052 0.16813 0.49200
C 	C 	0.85959 0.18258 0.25953 -0.21500
C 	C 	0.95061 0.20290 0.32593 0.11600
H 	H 	0.99070 0.24950 0.30980 -0.01900
C 	C 	0.92648 0.09012 0.43231 0.11700
H 	H 	0.94840 0.05880 0.49170 -0.03200
C 	C 	0.83553 0.06270 0.36910 -0.20900
C 	C 	0.77400 0.98660 0.39882 0.43700
C 	C 	0.80124 0.11125 0.28197 0.14100
H 	H 	0.73970 0.09610 0.23910 -0.00900
