data_crystal

_cell_length_a 9.49300
_cell_length_b 11.24200
_cell_length_c 11.27000
_cell_angle_alpha 82.89000
_cell_angle_beta  83.80000
_cell_angle_gamma 77.68000

_symmetry_space_group_name_	'P 1'
_symmetry_space_group_name_H-M	'P 1'

loop_
_symmetry_equiv_pos_as_xyz
  x,y,z

loop_
_atom_site_label
_atom_site_type_symbol
_atom_site_fract_x
_atom_site_fract_y
_atom_site_fract_z
_atom_site_charge
Ca	Ca	0.97459 0.33006 0.97779 1.47500
C 	C 	0.59970 0.39420 0.84850 0.09600
C 	C 	0.48130 0.38350 0.78560 -0.12900
C 	C 	0.34740 0.37710 0.85070 0.10400
C 	C 	0.50120 0.36800 0.66040 0.05500
C 	C 	0.38850 0.34080 0.60070 -0.06400
H 	H 	0.30110 0.33340 0.64400 0.04600
C 	C 	0.40630 0.32540 0.48210 -0.07700
H 	H 	0.33130 0.30670 0.44590 0.05900
C 	C 	0.53790 0.33740 0.41200 0.07000
C 	C 	0.64990 0.36370 0.47150 -0.07500
H 	H 	0.73740 0.37110 0.42840 0.06000
C 	C 	0.63190 0.37850 0.59110 -0.06400
H 	H 	0.70740 0.39580 0.62770 0.05100
C 	C 	0.55730 0.32300 0.28790 -0.12800
C 	C 	0.44360 0.30080 0.22650 0.09500
C 	C 	0.68980 0.32660 0.21860 0.10700
C 	C 	0.02240 0.33290 0.45030 0.10300
C 	C 	0.01620 0.23950 0.54430 -0.12900
C 	C 	0.01330 0.27100 0.66260 0.11100
C 	C 	0.00690 0.08940 0.40390 -0.07400
H 	H 	0.01130 0.14960 0.33990 0.02800
C 	C 	0.00810 0.11880 0.52290 0.05500
C 	C 	0.00060 0.02480 0.61760 -0.06900
H 	H 	0.00080 0.04180 0.69620 0.01700
N 	N 	0.69970 0.39920 0.89690 -0.24200
N 	N 	0.23590 0.37070 0.89820 -0.26400
N 	N 	0.34990 0.28390 0.17970 -0.18600
N 	N 	0.79850 0.32730 0.16110 -0.28700
N 	N 	0.01000 0.29560 0.75920 -0.28700
N 	N 	0.02580 0.40570 0.36980 -0.17300
O 	O 	0.93360 0.54510 0.88556 -0.99800
H 	H 	0.98280 0.54220 0.81790 0.35400
H 	H 	0.84860 0.58420 0.87290 0.35900
Ca	Ca	0.02541 0.66994 0.02221 1.47600
C 	C 	0.40030 0.60580 0.15150 0.09700
C 	C 	0.51870 0.61650 0.21440 -0.12900
C 	C 	0.65260 0.62290 0.14930 0.10400
C 	C 	0.49880 0.63200 0.33960 0.05500
C 	C 	0.61150 0.65920 0.39930 -0.06400
H 	H 	0.69890 0.66660 0.35600 0.04600
C 	C 	0.59370 0.67460 0.51790 -0.07700
H 	H 	0.66870 0.69330 0.55410 0.05900
C 	C 	0.46210 0.66260 0.58800 0.07000
C 	C 	0.35010 0.63630 0.52850 -0.07500
H 	H 	0.26260 0.62890 0.57160 0.06000
C 	C 	0.36810 0.62150 0.40890 -0.06400
H 	H 	0.29260 0.60420 0.37230 0.05100
C 	C 	0.44270 0.67700 0.71210 -0.12800
C 	C 	0.55640 0.69920 0.77350 0.09500
C 	C 	0.31020 0.67340 0.78140 0.10700
C 	C 	0.97760 0.66710 0.54970 0.10300
C 	C 	0.98380 0.76050 0.45570 -0.12900
C 	C 	0.98670 0.72900 0.33740 0.11100
C 	C 	0.99310 0.91060 0.59610 -0.07400
H 	H 	0.98870 0.85040 0.66010 0.02800
C 	C 	0.99190 0.88120 0.47710 0.05500
C 	C 	0.99940 0.97520 0.38240 -0.06900
H 	H 	0.99920 0.95820 0.30380 0.01700
N 	N 	0.30030 0.60080 0.10310 -0.24200
N 	N 	0.76410 0.62930 0.10180 -0.26400
N 	N 	0.65010 0.71610 0.82030 -0.18600
N 	N 	0.20150 0.67270 0.83890 -0.28700
N 	N 	0.99000 0.70440 0.24080 -0.28700
N 	N 	0.97420 0.59430 0.63020 -0.17300
O 	O 	0.06640 0.45490 0.11444 -0.99800
H 	H 	0.01720 0.45780 0.18210 0.35400
H 	H 	0.15140 0.41580 0.12710 0.35900
