data_crystal

_cell_length_a 8.58970
_cell_length_b 17.44460
_cell_length_c 17.44460
_cell_angle_alpha 120.00000
_cell_angle_beta  90.00000
_cell_angle_gamma 90.00000

_symmetry_space_group_name_	'P 1'
_symmetry_space_group_name_H-M	'P 1'

loop_
_symmetry_equiv_pos_as_xyz
  x,y,z

loop_
_atom_site_label
_atom_site_type_symbol
_atom_site_fract_x
_atom_site_fract_y
_atom_site_fract_z
_atom_site_charge
Mg	Mg	0.66667 0.00000 0.53516 1.45400
Mg	Mg	0.33333 0.46484 0.46484 1.46100
Mg	Mg	-0.00000 0.53516 -0.00000 1.45200
H 	H 	0.54313 0.87890 0.68970 0.07500
H 	H 	0.53257 0.04230 0.24300 -0.01100
H 	H 	0.87647 0.81080 0.12110 0.04000
H 	H 	0.86800 0.54600 0.12800 0.19400
H 	H 	0.13410 0.24300 0.04230 -0.05300
H 	H 	0.46533 0.45400 0.58200 0.18000
H 	H 	0.32503 0.46280 0.69600 0.10100
H 	H 	0.79867 0.12800 0.54600 0.18400
H 	H 	0.45687 0.18920 0.31030 0.06100
H 	H 	0.99170 0.30400 0.76680 0.06300
H 	H 	0.00830 0.53720 0.23320 0.14400
H 	H 	0.19923 0.75700 0.79930 0.05200
H 	H 	0.79020 0.12110 0.81080 0.00500
H 	H 	0.80077 0.95770 0.20070 0.08900
H 	H 	0.53467 0.87200 0.41800 0.17600
H 	H 	0.67497 0.76680 0.30400 0.09200
H 	H 	0.46743 0.79930 0.75700 0.05700
H 	H 	0.20980 0.31030 0.18920 0.09000
H 	H 	0.65837 0.23320 0.53720 0.11600
H 	H 	0.13200 0.41800 0.87200 0.16600
H 	H 	0.86590 0.20070 0.95770 0.12200
H 	H 	0.12353 0.68970 0.87890 0.06500
H 	H 	0.20133 0.58200 0.45400 0.17800
H 	H 	0.34163 0.69600 0.46280 0.10200
C 	C 	0.97600 0.30130 0.95350 0.23700
C 	C 	0.02400 0.34780 0.04650 -0.34300
C 	C 	0.64267 0.04650 0.34780 -0.17700
C 	C 	0.03430 0.47699 0.19388 -0.33400
C 	C 	0.15400 0.34340 0.16850 -0.19100
C 	C 	0.89230 0.22260 0.91930 -0.20000
C 	C 	0.50283 0.84460 0.52509 0.33300
C 	C 	0.83617 0.68049 0.15540 0.35100
C 	C 	0.16950 0.47491 0.31951 0.29500
C 	C 	0.36763 0.71689 0.52301 -0.16000
C 	C 	0.10770 0.30330 0.08070 0.14300
C 	C 	0.29903 0.52301 0.71689 -0.15700
C 	C 	0.34633 0.56297 0.66951 0.19500
C 	C 	0.84600 0.17490 0.83150 0.09500
C 	C 	0.54727 0.22496 0.43020 0.00400
C 	C 	0.78607 0.77504 0.20524 -0.05800
C 	C 	0.82067 0.83150 0.17490 0.01000
C 	C 	0.70097 0.80612 0.28311 -0.11600
C 	C 	0.63237 0.19388 0.47699 -0.19900
C 	C 	0.98700 0.43703 0.10654 0.39500
C 	C 	0.77437 0.91930 0.22260 -0.09600
C 	C 	0.51267 0.16850 0.34340 -0.09900
C 	C 	0.21393 0.56980 0.79476 -0.02200
C 	C 	0.55897 0.08070 0.30330 0.03700
C 	C 	0.96570 0.28311 0.80612 0.00300
C 	C 	0.83050 0.15540 0.68049 0.37900
C 	C 	0.69067 0.95350 0.30130 0.08300
C 	C 	0.32033 0.66951 0.56297 0.19600
C 	C 	0.01300 0.33049 0.89346 0.00900
C 	C 	0.49717 0.31951 0.47491 0.32400
C 	C 	0.35733 0.69870 0.65220 -0.04500
C 	C 	0.17933 0.65660 0.82510 -0.04100
C 	C 	0.48733 0.82510 0.65660 -0.04400
C 	C 	0.65367 0.89346 0.33049 0.14900
C 	C 	0.11940 0.43020 0.22496 0.07700
C 	C 	0.67967 0.10654 0.43703 0.23900
C 	C 	0.22563 0.69670 0.77740 -0.02700
C 	C 	0.44103 0.77740 0.69670 -0.02100
C 	C 	0.16383 0.52509 0.84460 0.33500
C 	C 	0.88060 0.20524 0.77504 -0.13200
C 	C 	0.45273 0.79476 0.56980 -0.01500
C 	C 	0.30933 0.65220 0.69870 -0.04300
O 	O 	0.23543 0.59260 0.51598 -0.50700
O 	O 	0.86220 0.18851 0.63155 -0.33000
O 	O 	0.90210 0.48402 0.07662 -0.56300
O 	O 	0.43123 0.51598 0.59260 -0.50100
O 	O 	0.09790 0.40740 0.92338 -0.44200
O 	O 	0.76457 0.07662 0.48402 -0.53800
O 	O 	0.75920 0.08431 0.65450 -0.54700
O 	O 	0.24080 0.42981 0.34550 -0.51400
O 	O 	0.56877 0.92338 0.40740 -0.46600
O 	O 	0.09253 0.57019 0.91569 -0.50100
O 	O 	0.19553 0.44304 0.81149 -0.31700
O 	O 	0.90747 0.65450 0.08431 -0.52400
O 	O 	0.47113 0.81149 0.44304 -0.31400
O 	O 	0.42587 0.34550 0.42981 -0.52000
O 	O 	0.52887 0.36845 0.55696 -0.31500
O 	O 	0.57413 0.91569 0.57019 -0.48400
O 	O 	0.13780 0.55696 0.36845 -0.31700
O 	O 	0.80447 0.63155 0.18851 -0.32400
