data_crystal

_cell_length_a 11.35930
_cell_length_b 22.58230
_cell_length_c 16.59230
_cell_angle_alpha 90.00000
_cell_angle_beta  92.12900
_cell_angle_gamma 90.00000

_symmetry_space_group_name_	'P 1'
_symmetry_space_group_name_H-M	'P 1'

loop_
_symmetry_equiv_pos_as_xyz
  x,y,z

loop_
_atom_site_label
_atom_site_type_symbol
_atom_site_fract_x
_atom_site_fract_y
_atom_site_fract_z
_atom_site_charge
C 	C 	0.41400 0.11690 0.51510 0.45700
C 	C 	0.42060 0.05970 0.56470 -0.12500
C 	C 	0.35380 0.01350 0.53840 0.01300
H 	H 	0.30870 0.01760 0.48940 0.03500
C 	C 	0.34870 0.96010 0.58040 -0.01800
H 	H 	0.29860 0.92920 0.56080 0.04800
C 	C 	0.41490 0.95210 0.64930 -0.08900
C 	C 	0.48930 0.99920 0.68070 0.03900
C 	C 	0.49250 0.05390 0.63750 0.06000
C 	C 	0.56740 0.09890 0.67040 -0.08000
H 	H 	0.57380 0.13510 0.64180 0.07300
C 	C 	0.62910 0.09240 0.73990 -0.02000
H 	H 	0.67730 0.12390 0.75990 0.05300
C 	C 	0.62300 0.03860 0.78400 -0.02500
H 	H 	0.66610 0.03400 0.83370 0.04500
C 	C 	0.55400 0.99350 0.75370 -0.07500
H 	H 	0.55010 0.95740 0.78290 0.06700
C 	C 	0.41180 0.89400 0.69230 0.34600
C 	C 	0.52850 0.37930 0.56060 0.44500
C 	C 	0.40290 0.46310 0.50750 0.05100
C 	C 	0.51390 0.44210 0.52910 -0.13800
C 	C 	0.61090 0.47770 0.52330 0.06100
C 	C 	0.73240 0.45710 0.54190 -0.07900
H 	H 	0.74220 0.41820 0.56290 0.07400
C 	C 	0.83600 0.49150 0.53050 -0.01700
H 	H 	0.91020 0.47510 0.54760 0.03600
C 	C 	0.20860 0.23840 0.47770 0.44500
C 	C 	0.08610 0.24020 0.50950 -0.11700
C 	C 	0.03130 0.29200 0.52070 0.01000
H 	H 	0.07320 0.32760 0.51130 0.03600
C 	C 	0.91490 0.29610 0.54540 -0.00500
H 	H 	0.87900 0.33370 0.55160 0.03700
C 	C 	0.85300 0.24520 0.56080 -0.10600
C 	C 	0.90640 0.18930 0.55230 0.05400
C 	C 	0.02540 0.18610 0.52640 0.05200
C 	C 	0.08040 0.12980 0.51940 -0.07100
H 	H 	0.15850 0.12720 0.50120 0.06000
C 	C 	0.02090 0.07930 0.53880 -0.02600
H 	H 	0.05820 0.04190 0.53400 0.03900
C 	C 	0.90420 0.08230 0.56590 -0.02200
H 	H 	0.86460 0.04710 0.58050 0.03600
C 	C 	0.84860 0.13550 0.57120 -0.07400
H 	H 	0.76950 0.13660 0.58780 0.06500
C 	C 	0.73010 0.25060 0.59110 0.42500
C 	C 	0.56200 0.26220 0.37280 0.57000
H 	H 	0.59840 0.29370 0.40240 -0.13700
C 	C 	0.35560 0.24920 0.69500 0.59000
H 	H 	0.30490 0.22140 0.66820 -0.14000
O 	O 	0.43340 0.16420 0.55220 -0.51100
O 	O 	0.38450 0.11240 0.44290 -0.52300
O 	O 	0.50800 0.86620 0.71010 -0.61400
O 	O 	0.31490 0.87330 0.71350 -0.39000
O 	O 	0.57810 0.37320 0.62780 -0.49900
O 	O 	0.48650 0.33920 0.51640 -0.48500
O 	O 	0.28570 0.26650 0.51780 -0.47600
O 	O 	0.22240 0.21110 0.41420 -0.50400
O 	O 	0.72430 0.26930 0.66250 -0.47600
O 	O 	0.64530 0.23760 0.54550 -0.48500
O 	O 	0.48270 0.23480 0.40770 -0.66800
O 	O 	0.59920 0.25320 0.30390 -0.52300
O 	O 	0.44710 0.26500 0.65830 -0.68400
O 	O 	0.32710 0.26640 0.76110 -0.55800
Mg	Mg	0.46410 0.25056 0.53215 1.48000
Mg	Mg	0.58570 0.30844 0.71407 1.47800
Mg	Mg	0.36020 0.17429 0.35431 1.47200
H 	H 	0.29750 0.39120 0.53720 0.07000
C 	C 	0.28840 0.43080 0.51870 -0.07000
H 	H 	0.09660 0.42760 0.51920 0.04100
C 	C 	0.16420 0.44990 0.50590 -0.03600
C 	C 	0.58600 0.61690 0.98490 0.45800
C 	C 	0.57940 0.55970 0.93530 -0.12500
C 	C 	0.64620 0.51350 0.96160 0.01400
H 	H 	0.69130 0.51760 0.01060 0.03500
C 	C 	0.65130 0.46010 0.91960 -0.01900
H 	H 	0.70140 0.42920 0.93920 0.04800
C 	C 	0.58510 0.45210 0.85070 -0.08900
C 	C 	0.51070 0.49920 0.81930 0.03900
C 	C 	0.50750 0.55390 0.86250 0.06100
C 	C 	0.43260 0.59890 0.82960 -0.08000
H 	H 	0.42620 0.63510 0.85820 0.07400
C 	C 	0.37090 0.59240 0.76010 -0.02000
H 	H 	0.32270 0.62390 0.74010 0.05300
C 	C 	0.37700 0.53860 0.71600 -0.02500
H 	H 	0.33390 0.53400 0.66630 0.04500
C 	C 	0.44600 0.49350 0.74630 -0.07500
H 	H 	0.44990 0.45740 0.71710 0.06700
C 	C 	0.58820 0.39400 0.80770 0.34600
C 	C 	0.47150 0.87930 0.93940 0.44500
C 	C 	0.59710 0.96310 0.99250 0.05100
C 	C 	0.48610 0.94210 0.97090 -0.13700
C 	C 	0.38910 0.97770 0.97670 0.06100
C 	C 	0.26760 0.95710 0.95810 -0.07800
H 	H 	0.25780 0.91820 0.93710 0.07300
C 	C 	0.16400 0.99150 0.96950 -0.01700
H 	H 	0.08980 0.97510 0.95240 0.03600
C 	C 	0.79140 0.73840 0.02230 0.44500
C 	C 	0.91390 0.74020 0.99050 -0.11800
C 	C 	0.96870 0.79200 0.97930 0.01200
H 	H 	0.92680 0.82760 0.98870 0.03600
C 	C 	0.08510 0.79610 0.95460 -0.00700
H 	H 	0.12100 0.83370 0.94840 0.03800
C 	C 	0.14700 0.74520 0.93920 -0.10500
C 	C 	0.09360 0.68930 0.94770 0.05200
C 	C 	0.97460 0.68610 0.97360 0.05400
C 	C 	0.91960 0.62980 0.98060 -0.07300
H 	H 	0.84150 0.62720 0.99880 0.06100
C 	C 	0.97910 0.57930 0.96120 -0.02300
H 	H 	0.94180 0.54190 0.96600 0.03900
C 	C 	0.09580 0.58230 0.93410 -0.02500
H 	H 	0.13540 0.54710 0.91950 0.03700
C 	C 	0.15140 0.63550 0.92880 -0.07200
H 	H 	0.23050 0.63660 0.91220 0.06400
C 	C 	0.26990 0.75060 0.90890 0.42400
C 	C 	0.43800 0.76220 0.12720 0.57000
H 	H 	0.40160 0.79370 0.09760 -0.13700
C 	C 	0.64440 0.74920 0.80500 0.59000
H 	H 	0.69510 0.72140 0.83180 -0.14000
O 	O 	0.56660 0.66420 0.94780 -0.51100
O 	O 	0.61550 0.61240 0.05710 -0.52300
O 	O 	0.49200 0.36620 0.78990 -0.61400
O 	O 	0.68510 0.37330 0.78650 -0.39000
O 	O 	0.42190 0.87320 0.87220 -0.50000
O 	O 	0.51350 0.83920 0.98360 -0.48500
O 	O 	0.71430 0.76650 0.98220 -0.47600
O 	O 	0.77760 0.71110 0.08580 -0.50400
O 	O 	0.27570 0.76930 0.83750 -0.47600
O 	O 	0.35470 0.73760 0.95450 -0.48500
O 	O 	0.51730 0.73480 0.09230 -0.66800
O 	O 	0.40080 0.75320 0.19610 -0.52300
O 	O 	0.55290 0.76500 0.84170 -0.68400
O 	O 	0.67290 0.76640 0.73890 -0.55800
Mg	Mg	0.53590 0.75056 0.96785 1.48000
Mg	Mg	0.41430 0.80844 0.78593 1.47800
Mg	Mg	0.63980 0.67429 0.14569 1.47200
H 	H 	0.70250 0.89120 0.96280 0.07000
C 	C 	0.71160 0.93080 0.98130 -0.07000
H 	H 	0.90340 0.92760 0.98080 0.04100
C 	C 	0.83580 0.94990 0.99410 -0.03500
C 	C 	0.58600 0.88310 0.48490 0.45800
C 	C 	0.57940 0.94030 0.43530 -0.12400
C 	C 	0.64620 0.98650 0.46160 0.01300
H 	H 	0.69130 0.98240 0.51060 0.03500
C 	C 	0.65130 0.03990 0.41960 -0.01800
H 	H 	0.70140 0.07080 0.43920 0.04800
C 	C 	0.58510 0.04790 0.35070 -0.08900
C 	C 	0.51070 0.00080 0.31930 0.03900
C 	C 	0.50750 0.94610 0.36250 0.06000
C 	C 	0.43260 0.90110 0.32960 -0.08000
H 	H 	0.42620 0.86490 0.35820 0.07300
C 	C 	0.37090 0.90760 0.26010 -0.02000
H 	H 	0.32270 0.87610 0.24010 0.05300
C 	C 	0.37700 0.96140 0.21600 -0.02500
H 	H 	0.33390 0.96600 0.16630 0.04500
C 	C 	0.44600 0.00650 0.24630 -0.07500
H 	H 	0.44990 0.04260 0.21710 0.06700
C 	C 	0.58820 0.10600 0.30770 0.34600
C 	C 	0.47150 0.62070 0.43940 0.44500
C 	C 	0.59710 0.53690 0.49250 0.05100
C 	C 	0.48610 0.55790 0.47090 -0.13800
C 	C 	0.38910 0.52230 0.47670 0.06100
C 	C 	0.26760 0.54290 0.45810 -0.07900
H 	H 	0.25780 0.58180 0.43710 0.07400
C 	C 	0.16400 0.50850 0.46950 -0.01700
H 	H 	0.08980 0.52490 0.45240 0.03600
C 	C 	0.79140 0.76160 0.52230 0.44500
C 	C 	0.91390 0.75980 0.49050 -0.11700
C 	C 	0.96870 0.70800 0.47930 0.01000
H 	H 	0.92680 0.67240 0.48870 0.03600
C 	C 	0.08510 0.70390 0.45460 -0.00500
H 	H 	0.12100 0.66630 0.44840 0.03700
C 	C 	0.14700 0.75480 0.43920 -0.10600
C 	C 	0.09360 0.81070 0.44770 0.05400
C 	C 	0.97460 0.81390 0.47360 0.05200
C 	C 	0.91960 0.87020 0.48060 -0.07100
H 	H 	0.84150 0.87280 0.49880 0.06000
C 	C 	0.97910 0.92070 0.46120 -0.02600
H 	H 	0.94180 0.95810 0.46600 0.03900
C 	C 	0.09580 0.91770 0.43410 -0.02200
H 	H 	0.13540 0.95290 0.41950 0.03600
C 	C 	0.15140 0.86450 0.42880 -0.07400
H 	H 	0.23050 0.86340 0.41220 0.06500
C 	C 	0.26990 0.74940 0.40890 0.42500
C 	C 	0.43800 0.73780 0.62720 0.57000
H 	H 	0.40160 0.70630 0.59760 -0.13700
C 	C 	0.64440 0.75080 0.30500 0.59000
H 	H 	0.69510 0.77860 0.33180 -0.14000
O 	O 	0.56660 0.83580 0.44780 -0.51100
O 	O 	0.61550 0.88760 0.55710 -0.52300
O 	O 	0.49200 0.13380 0.28990 -0.61400
O 	O 	0.68510 0.12670 0.28650 -0.39000
O 	O 	0.42190 0.62680 0.37220 -0.49900
O 	O 	0.51350 0.66080 0.48360 -0.48500
O 	O 	0.71430 0.73350 0.48220 -0.47600
O 	O 	0.77760 0.78890 0.58580 -0.50400
O 	O 	0.27570 0.73070 0.33750 -0.47600
O 	O 	0.35470 0.76240 0.45450 -0.48500
O 	O 	0.51730 0.76520 0.59230 -0.66800
O 	O 	0.40080 0.74680 0.69610 -0.52300
O 	O 	0.55290 0.73500 0.34170 -0.68400
O 	O 	0.67290 0.73360 0.23890 -0.55800
Mg	Mg	0.53590 0.74944 0.46785 1.48000
Mg	Mg	0.41430 0.69156 0.28593 1.47800
Mg	Mg	0.63980 0.82571 0.64569 1.47200
H 	H 	0.70250 0.60880 0.46280 0.07000
C 	C 	0.71160 0.56920 0.48130 -0.07000
H 	H 	0.90340 0.57240 0.48080 0.04100
C 	C 	0.83580 0.55010 0.49410 -0.03600
C 	C 	0.41400 0.38310 0.01510 0.45800
C 	C 	0.42060 0.44030 0.06470 -0.12500
C 	C 	0.35380 0.48650 0.03840 0.01400
H 	H 	0.30870 0.48240 0.98940 0.03500
C 	C 	0.34870 0.53990 0.08040 -0.01900
H 	H 	0.29860 0.57080 0.06080 0.04800
C 	C 	0.41490 0.54790 0.14930 -0.08900
C 	C 	0.48930 0.50080 0.18070 0.03900
C 	C 	0.49250 0.44610 0.13750 0.06100
C 	C 	0.56740 0.40110 0.17040 -0.08000
H 	H 	0.57380 0.36490 0.14180 0.07400
C 	C 	0.62910 0.40760 0.23990 -0.02000
H 	H 	0.67730 0.37610 0.25990 0.05300
C 	C 	0.62300 0.46140 0.28400 -0.02500
H 	H 	0.66610 0.46600 0.33370 0.04500
C 	C 	0.55400 0.50650 0.25370 -0.07500
H 	H 	0.55010 0.54260 0.28290 0.06700
C 	C 	0.41180 0.60600 0.19230 0.34600
C 	C 	0.52850 0.12070 0.06060 0.44500
C 	C 	0.40290 0.03690 0.00750 0.05100
C 	C 	0.51390 0.05790 0.02910 -0.13700
C 	C 	0.61090 0.02230 0.02330 0.06100
C 	C 	0.73240 0.04290 0.04190 -0.07800
H 	H 	0.74220 0.08180 0.06290 0.07300
C 	C 	0.83600 0.00850 0.03050 -0.01700
H 	H 	0.91020 0.02490 0.04760 0.03600
C 	C 	0.20860 0.26160 0.97770 0.44500
C 	C 	0.08610 0.25980 0.00950 -0.11800
C 	C 	0.03130 0.20800 0.02070 0.01200
H 	H 	0.07320 0.17240 0.01130 0.03600
C 	C 	0.91490 0.20390 0.04540 -0.00700
H 	H 	0.87900 0.16630 0.05160 0.03800
C 	C 	0.85300 0.25480 0.06080 -0.10500
C 	C 	0.90640 0.31070 0.05230 0.05200
C 	C 	0.02540 0.31390 0.02640 0.05400
C 	C 	0.08040 0.37020 0.01940 -0.07300
H 	H 	0.15850 0.37280 0.00120 0.06100
C 	C 	0.02090 0.42070 0.03880 -0.02300
H 	H 	0.05820 0.45810 0.03400 0.03900
C 	C 	0.90420 0.41770 0.06590 -0.02500
H 	H 	0.86460 0.45290 0.08050 0.03700
C 	C 	0.84860 0.36450 0.07120 -0.07200
H 	H 	0.76950 0.36340 0.08780 0.06400
C 	C 	0.73010 0.24940 0.09110 0.42400
C 	C 	0.56200 0.23780 0.87280 0.57000
H 	H 	0.59840 0.20630 0.90240 -0.13700
C 	C 	0.35560 0.25080 0.19500 0.59000
H 	H 	0.30490 0.27860 0.16820 -0.14000
O 	O 	0.43340 0.33580 0.05220 -0.51100
O 	O 	0.38450 0.38760 0.94290 -0.52300
O 	O 	0.50800 0.63380 0.21010 -0.61400
O 	O 	0.31490 0.62670 0.21350 -0.39000
O 	O 	0.57810 0.12680 0.12780 -0.50000
O 	O 	0.48650 0.16080 0.01640 -0.48500
O 	O 	0.28570 0.23350 0.01780 -0.47600
O 	O 	0.22240 0.28890 0.91420 -0.50400
O 	O 	0.72430 0.23070 0.16250 -0.47600
O 	O 	0.64530 0.26240 0.04550 -0.48500
O 	O 	0.48270 0.26520 0.90770 -0.66800
O 	O 	0.59920 0.24680 0.80390 -0.52300
O 	O 	0.44710 0.23500 0.15830 -0.68400
O 	O 	0.32710 0.23360 0.26110 -0.55800
Mg	Mg	0.46410 0.24944 0.03215 1.48000
Mg	Mg	0.58570 0.19156 0.21407 1.47800
Mg	Mg	0.36020 0.32571 0.85431 1.47200
H 	H 	0.29750 0.10880 0.03720 0.07000
C 	C 	0.28840 0.06920 0.01870 -0.07000
H 	H 	0.09660 0.07240 0.01920 0.04100
C 	C 	0.16420 0.05010 0.00590 -0.03500
