data_crystal

_cell_length_a 12.72100
_cell_length_b 13.82000
_cell_length_c 14.86600
_cell_angle_alpha 90.00000
_cell_angle_beta  90.00000
_cell_angle_gamma 90.00000

_symmetry_space_group_name_	'P 1'
_symmetry_space_group_name_H-M	'P 1'

loop_
_symmetry_equiv_pos_as_xyz
  x,y,z

loop_
_atom_site_label
_atom_site_type_symbol
_atom_site_fract_x
_atom_site_fract_y
_atom_site_fract_z
_atom_site_charge
Cu	Cu	0.49988 0.36249 0.48507 0.91000
Ba	Ba	0.29508 0.19897 0.41992 1.85300
C 	C 	0.58610 0.48640 0.60040 0.40700
C 	C 	0.59410 0.55830 0.67810 -0.12700
C 	C 	0.68120 0.58490 0.72630 -0.00900
H 	H 	0.74830 0.56130 0.71480 -0.00200
C 	C 	0.65900 0.65070 0.79380 -0.01200
H 	H 	0.71000 0.67740 0.83110 0.01700
C 	C 	0.55530 0.67220 0.80010 -0.14100
C 	C 	0.50030 0.73620 0.86680 0.41200
C 	C 	0.60220 0.22350 0.39670 0.45400
C 	C 	0.62930 0.14140 0.33410 -0.16000
C 	C 	0.72200 0.09450 0.32830 0.02700
H 	H 	0.77960 0.10900 0.36430 0.01700
C 	C 	0.72290 0.02120 0.26220 -0.04600
H 	H 	0.78090 0.98300 0.24840 0.04100
C 	C 	0.62660 0.01390 0.22110 -0.09000
C 	C 	0.59840 0.94920 0.14430 0.35000
O 	O 	0.49560 0.46470 0.57500 -0.42200
O 	O 	0.66970 0.45630 0.57060 -0.52100
O 	O 	0.40470 0.75150 0.85570 -0.47000
O 	O 	0.55780 0.76880 0.92950 -0.51500
O 	O 	0.50890 0.25320 0.39590 -0.56800
O 	O 	0.67240 0.25680 0.44460 -0.53800
O 	O 	0.50550 0.95640 0.11400 -0.40400
O 	O 	0.66640 0.89230 0.11320 -0.47200
S 	S 	0.48235 0.61358 0.71947 0.04300
S 	S 	0.53894 0.09580 0.26087 -0.02800
Cu	Cu	0.00012 0.63751 0.98507 0.90600
Ba	Ba	0.20492 0.80103 0.91992 1.84100
C 	C 	0.91390 0.51360 0.10040 0.40100
C 	C 	0.90590 0.44170 0.17810 -0.13000
C 	C 	0.81880 0.41510 0.22630 -0.00900
H 	H 	0.75170 0.43870 0.21480 -0.00200
C 	C 	0.84100 0.34930 0.29380 -0.01100
H 	H 	0.79000 0.32260 0.33110 0.01600
C 	C 	0.94470 0.32780 0.30010 -0.14500
C 	C 	0.99970 0.26380 0.36680 0.40900
C 	C 	0.89780 0.77650 0.89670 0.45300
C 	C 	0.87070 0.85860 0.83410 -0.15800
C 	C 	0.77800 0.90550 0.82830 0.02400
H 	H 	0.72040 0.89100 0.86430 0.01900
C 	C 	0.77710 0.97880 0.76220 -0.03900
H 	H 	0.71910 0.01700 0.74840 0.03700
C 	C 	0.87340 0.98610 0.72110 -0.09000
C 	C 	0.90160 0.05080 0.64430 0.34800
O 	O 	0.00440 0.53530 0.07500 -0.41500
O 	O 	0.83030 0.54370 0.07060 -0.51900
O 	O 	0.09530 0.24850 0.35570 -0.46800
O 	O 	0.94220 0.23120 0.42950 -0.51700
O 	O 	0.99110 0.74680 0.89590 -0.56300
O 	O 	0.82760 0.74320 0.94460 -0.53400
O 	O 	0.99450 0.04360 0.61400 -0.40400
O 	O 	0.83360 0.10770 0.61320 -0.47200
S 	S 	0.01765 0.38642 0.21947 0.05000
S 	S 	0.96106 0.90420 0.76087 -0.02500
Cu	Cu	0.50012 0.86249 0.01493 0.90900
Ba	Ba	0.70492 0.69897 0.08008 1.84500
C 	C 	0.41390 0.98640 0.89960 0.40600
C 	C 	0.40590 0.05830 0.82190 -0.12700
C 	C 	0.31880 0.08490 0.77370 -0.00900
H 	H 	0.25170 0.06130 0.78520 -0.00300
C 	C 	0.34100 0.15070 0.70620 -0.01200
H 	H 	0.29000 0.17740 0.66890 0.01600
C 	C 	0.44470 0.17220 0.69990 -0.14200
C 	C 	0.49970 0.23620 0.63320 0.41200
C 	C 	0.39780 0.72350 0.10330 0.45300
C 	C 	0.37070 0.64140 0.16590 -0.15900
C 	C 	0.27800 0.59450 0.17170 0.02500
H 	H 	0.22040 0.60900 0.13570 0.01800
C 	C 	0.27710 0.52120 0.23780 -0.04200
H 	H 	0.21910 0.48300 0.25160 0.03900
C 	C 	0.37340 0.51390 0.27890 -0.09100
C 	C 	0.40160 0.44920 0.35570 0.35000
O 	O 	0.50440 0.96470 0.92500 -0.42000
O 	O 	0.33030 0.95630 0.92940 -0.52000
O 	O 	0.59530 0.25150 0.64430 -0.47000
O 	O 	0.44220 0.26880 0.57050 -0.51700
O 	O 	0.49110 0.75320 0.10410 -0.56800
O 	O 	0.32760 0.75680 0.05540 -0.53600
O 	O 	0.49450 0.45640 0.38600 -0.40400
O 	O 	0.33360 0.39230 0.38680 -0.47200
S 	S 	0.51765 0.11358 0.78053 0.04300
S 	S 	0.46106 0.59580 0.23913 -0.02800
Cu	Cu	0.99988 0.13751 0.51493 0.90900
Ba	Ba	0.79508 0.30103 0.58008 1.85100
C 	C 	0.08610 0.01360 0.39960 0.41400
C 	C 	0.09410 0.94170 0.32190 -0.13000
C 	C 	0.18120 0.91510 0.27370 -0.00700
H 	H 	0.24830 0.93870 0.28520 -0.00400
C 	C 	0.15900 0.84930 0.20620 -0.01300
H 	H 	0.21000 0.82260 0.16890 0.01700
C 	C 	0.05530 0.82780 0.19990 -0.14100
C 	C 	0.00030 0.76380 0.13320 0.41500
C 	C 	0.10220 0.27650 0.60330 0.45400
C 	C 	0.12930 0.35860 0.66590 -0.15900
C 	C 	0.22200 0.40550 0.67170 0.02600
H 	H 	0.27960 0.39100 0.63570 0.01700
C 	C 	0.22290 0.47880 0.73780 -0.04200
H 	H 	0.28090 0.51700 0.75160 0.03900
C 	C 	0.12660 0.48610 0.77890 -0.09100
C 	C 	0.09840 0.55080 0.85570 0.34900
O 	O 	0.99560 0.03530 0.42500 -0.42700
O 	O 	0.16970 0.04370 0.42940 -0.52200
O 	O 	0.90470 0.74850 0.14430 -0.47300
O 	O 	0.05780 0.73120 0.07050 -0.51600
O 	O 	0.00890 0.24680 0.60410 -0.56800
O 	O 	0.17240 0.24320 0.55540 -0.53800
O 	O 	0.00550 0.54360 0.88600 -0.40600
O 	O 	0.16640 0.60770 0.88680 -0.47200
S 	S 	0.98235 0.88642 0.28053 0.04200
S 	S 	0.03894 0.40420 0.73913 -0.02900
