data_crystal

_cell_length_a 7.27760
_cell_length_b 22.06000
_cell_length_c 15.02340
_cell_angle_alpha 90.00000
_cell_angle_beta  98.68700
_cell_angle_gamma 90.00000

_symmetry_space_group_name_	'P 1'
_symmetry_space_group_name_H-M	'P 1'

loop_
_symmetry_equiv_pos_as_xyz
  x,y,z

loop_
_atom_site_label
_atom_site_type_symbol
_atom_site_fract_x
_atom_site_fract_y
_atom_site_fract_z
_atom_site_charge
C 	C 	0.29320 0.47520 0.16870 0.48100
C 	C 	0.34730 0.45700 0.26520 -0.09100
C 	C 	0.52150 0.47310 0.31080 0.01700
H 	H 	0.60210 0.49590 0.28180 0.06200
C 	C 	0.22620 0.42280 0.30930 -0.08600
H 	H 	0.10760 0.41310 0.28060 0.06800
C 	C 	0.57520 0.45520 0.39970 -0.03500
C 	C 	0.45670 0.42090 0.44350 -0.10100
H 	H 	0.49070 0.40950 0.50330 0.11500
C 	C 	0.28640 0.40380 0.39590 0.16800
C 	C 	0.35090 0.27850 0.43780 -0.20500
H 	H 	0.45210 0.30050 0.42420 0.13400
C 	C 	0.19210 0.30780 0.44530 0.18700
C 	C 	0.36710 0.21720 0.44970 0.08700
H 	H 	0.47810 0.19800 0.44320 0.02300
C 	C 	0.04310 0.27340 0.46480 -0.01700
C 	C 	0.76270 0.47370 0.44490 0.39800
C 	C 	0.21990 0.18350 0.47140 -0.09800
C 	C 	0.23340 0.11620 0.48510 0.43800
C 	C 	0.05230 0.21240 0.47650 -0.16200
H 	H 	0.94900 0.19050 0.48770 0.18100
N 	N 	0.85970 0.30210 0.46100 0.03800
O 	O 	0.23140 0.47110 0.94590 -0.77400
H 	H 	0.17020 0.45360 0.89130 0.20600
O 	O 	0.13080 0.46920 0.13410 -0.61400
O 	O 	0.42100 0.49630 0.13200 -0.59300
O 	O 	0.16230 0.36950 0.43920 -0.25200
O 	O 	0.80660 0.45640 0.52640 -0.48600
H 	H 	0.91470 0.46590 0.54470 0.36700
O 	O 	0.86460 0.50380 0.40310 -0.24900
O 	O 	0.38040 0.09040 0.47500 -0.58800
O 	O 	0.09260 0.09180 0.51040 -0.61500
O 	O 	0.78100 0.29280 0.52720 -0.09100
O 	O 	0.79800 0.33440 0.40120 -0.08800
C 	C 	0.20680 0.97520 0.33130 0.46200
C 	C 	0.15270 0.95700 0.23480 -0.08200
C 	C 	0.97850 0.97310 0.18920 0.03500
H 	H 	0.89790 0.99590 0.21820 0.11200
C 	C 	0.27380 0.92280 0.19070 -0.16300
H 	H 	0.39240 0.91310 0.21940 0.13900
C 	C 	0.92480 0.95520 0.10030 0.18000
C 	C 	0.04330 0.92090 0.05650 -0.51000
H 	H 	0.00930 0.90950 0.99670 0.31500
C 	C 	0.21360 0.90380 0.10410 0.33600
C 	C 	0.14910 0.77850 0.06220 -0.25400
H 	H 	0.04790 0.80050 0.07580 0.11200
C 	C 	0.30790 0.80780 0.05470 0.21000
C 	C 	0.13290 0.71720 0.05030 0.11800
H 	H 	0.02190 0.69800 0.05680 -0.02400
C 	C 	0.45690 0.77340 0.03520 -0.02500
C 	C 	0.73730 0.97370 0.05510 0.37800
C 	C 	0.28010 0.68350 0.02860 -0.15300
C 	C 	0.26660 0.61620 0.01490 0.34200
C 	C 	0.44770 0.71240 0.02350 0.01800
H 	H 	0.55100 0.69050 0.01230 0.03800
N 	N 	0.64030 0.80210 0.03900 -0.04300
O 	O 	0.26860 0.97110 0.55410 -0.76700
H 	H 	0.32980 0.95360 0.60870 0.25400
O 	O 	0.36920 0.96920 0.36590 -0.50200
O 	O 	0.07900 0.99630 0.36800 -0.54400
O 	O 	0.33770 0.86950 0.06080 -0.28200
O 	O 	0.69340 0.95640 0.97360 -0.36100
H 	H 	0.58530 0.96590 0.95530 0.34700
O 	O 	0.63540 0.00380 0.09690 -0.42900
O 	O 	0.11960 0.59040 0.02500 -0.59100
O 	O 	0.40740 0.59180 0.98960 -0.41900
O 	O 	0.71900 0.79280 0.97280 0.02600
O 	O 	0.70200 0.83440 0.09880 -0.08600
C 	C 	0.70680 0.52480 0.83130 0.45300
C 	C 	0.65270 0.54300 0.73480 -0.04700
C 	C 	0.47850 0.52690 0.68920 0.00100
H 	H 	0.39790 0.50410 0.71820 0.05800
C 	C 	0.77380 0.57720 0.69070 -0.10100
H 	H 	0.89240 0.58690 0.71940 0.13600
C 	C 	0.42480 0.54480 0.60030 -0.03100
C 	C 	0.54330 0.57910 0.55650 -0.11100
H 	H 	0.50930 0.59050 0.49670 0.11600
C 	C 	0.71360 0.59620 0.60410 0.19700
C 	C 	0.64910 0.72150 0.56220 -0.28900
H 	H 	0.54790 0.69950 0.57580 0.16900
C 	C 	0.80790 0.69220 0.55470 0.25900
C 	C 	0.63290 0.78280 0.55030 0.21800
H 	H 	0.52190 0.80200 0.55680 -0.01300
C 	C 	0.95690 0.72660 0.53520 -0.02500
C 	C 	0.23730 0.52630 0.55510 0.38800
C 	C 	0.78010 0.81650 0.52860 -0.24100
C 	C 	0.76660 0.88380 0.51490 0.50800
C 	C 	0.94770 0.78760 0.52350 0.26000
H 	H 	0.05100 0.80950 0.51230 -0.08100
N 	N 	0.14030 0.69790 0.53900 -0.01100
O 	O 	0.76860 0.52890 0.05410 -0.84300
H 	H 	0.82980 0.54640 0.10870 0.26100
O 	O 	0.86920 0.53080 0.86590 -0.47500
O 	O 	0.57900 0.50370 0.86800 -0.53800
O 	O 	0.83770 0.63050 0.56080 -0.21300
O 	O 	0.19340 0.54360 0.47360 -0.48300
H 	H 	0.08530 0.53410 0.45530 0.29200
O 	O 	0.13540 0.49620 0.59690 -0.33400
O 	O 	0.61960 0.90960 0.52500 -0.52300
O 	O 	0.90740 0.90820 0.48960 -0.47800
O 	O 	0.21900 0.70720 0.47280 -0.12800
O 	O 	0.20200 0.66560 0.59880 -0.12500
C 	C 	0.79320 0.02480 0.66870 0.46600
C 	C 	0.84730 0.04300 0.76520 -0.04600
C 	C 	0.02150 0.02690 0.81080 -0.03200
H 	H 	0.10210 0.00410 0.78180 0.01200
C 	C 	0.72620 0.07720 0.80930 -0.03300
H 	H 	0.60760 0.08690 0.78060 0.06900
C 	C 	0.07520 0.04480 0.89970 -0.23300
C 	C 	0.95670 0.07910 0.94350 0.27600
H 	H 	0.99070 0.09050 0.00330 -0.07000
C 	C 	0.78640 0.09620 0.89590 0.04000
C 	C 	0.85090 0.22150 0.93780 -0.24300
H 	H 	0.95210 0.19950 0.92420 0.19100
C 	C 	0.69210 0.19220 0.94530 0.23800
C 	C 	0.86710 0.28280 0.94970 0.18900
H 	H 	0.97810 0.30200 0.94320 0.03300
C 	C 	0.54310 0.22660 0.96480 -0.01900
C 	C 	0.26270 0.02630 0.94490 0.39300
C 	C 	0.71990 0.31650 0.97140 -0.18900
C 	C 	0.73340 0.38380 0.98510 0.60500
C 	C 	0.55230 0.28760 0.97650 0.08500
H 	H 	0.44900 0.30950 0.98770 0.05900
N 	N 	0.35970 0.19790 0.96100 0.06900
O 	O 	0.73140 0.02890 0.44590 -0.84300
H 	H 	0.67020 0.04640 0.39130 0.21100
O 	O 	0.63080 0.03080 0.63410 -0.58800
O 	O 	0.92100 0.00370 0.63200 -0.57300
O 	O 	0.66230 0.13050 0.93920 -0.18700
O 	O 	0.30660 0.04360 0.02640 -0.60100
H 	H 	0.41470 0.03410 0.04470 0.31100
O 	O 	0.36460 0.99620 0.90310 -0.14400
O 	O 	0.88040 0.40960 0.97500 -0.51700
O 	O 	0.59260 0.40820 0.01040 -0.67900
O 	O 	0.28100 0.20720 0.02720 -0.24400
O 	O 	0.29800 0.16560 0.90120 -0.12800
In	In	-0.00000 0.50000 -0.00000 1.95800
In	In	0.50000 0.00000 0.50000 1.97200
In	In	0.50000 0.50000 -0.00000 1.99300
In	In	0.00000 0.00000 0.50000 1.96100
