data_crystal

_cell_length_a 8.12660
_cell_length_b 10.48150
_cell_length_c 11.31670
_cell_angle_alpha 62.41270
_cell_angle_beta  84.18700
_cell_angle_gamma 77.36700

_symmetry_space_group_name_	'P 1'
_symmetry_space_group_name_H-M	'P 1'

loop_
_symmetry_equiv_pos_as_xyz
  x,y,z

loop_
_atom_site_label
_atom_site_type_symbol
_atom_site_fract_x
_atom_site_fract_y
_atom_site_fract_z
_atom_site_charge
Ni	Ni	0.48977 0.68815 0.50778 1.04200
Ni	Ni	0.98977 0.19593 0.49222 1.02500
H 	H 	0.60000 0.57310 0.78980 -0.02200
H 	H 	0.41500 0.38130 0.62740 -0.03800
H 	H 	0.60600 0.37440 0.99920 0.06900
H 	H 	0.40080 0.17890 0.82740 0.08200
H 	H 	0.52800 0.22080 0.19040 0.03200
H 	H 	0.41800 0.98610 0.00980 0.05500
H 	H 	0.55500 0.99450 0.39500 0.01700
H 	H 	0.42500 0.77600 0.21800 0.00600
H 	H 	0.70900 0.38130 0.55940 -0.11400
H 	H 	0.10000 0.36290 0.21020 -0.01400
H 	H 	0.91500 0.00870 0.37260 -0.04700
H 	H 	0.10600 0.37360 0.00080 0.05800
H 	H 	0.90080 0.00630 0.17260 0.06100
H 	H 	0.02800 0.41120 0.80960 0.05100
H 	H 	0.91800 0.99590 0.99020 0.08600
H 	H 	0.05500 0.38950 0.60500 -0.02000
H 	H 	0.92500 0.99400 0.78200 0.00800
H 	H 	0.20900 0.94070 0.44060 -0.08900
C 	C 	0.54740 0.49285 0.80330 0.07900
C 	C 	0.44330 0.38129 0.70542 0.09700
C 	C 	0.54390 0.37388 0.92824 -0.13400
C 	C 	0.43820 0.25805 0.82450 -0.16700
C 	C 	0.48950 0.25258 0.94084 0.08700
C 	C 	0.48370 0.12307 0.07306 -0.02500
C 	C 	0.51730 0.12527 0.19066 -0.04700
C 	C 	0.44560 0.99354 0.08652 -0.04800
C 	C 	0.51720 0.00139 0.31062 -0.03300
C 	C 	0.44550 0.87555 0.21050 0.04500
C 	C 	0.72760 0.45460 0.45760 0.37500
C 	C 	0.04740 0.29615 0.19670 0.09500
C 	C 	0.94330 0.08671 0.29458 0.06800
C 	C 	0.04390 0.30212 0.07176 -0.07400
C 	C 	0.93820 0.08255 0.17550 -0.13800
C 	C 	0.98950 0.19342 0.05916 0.01300
C 	C 	0.98370 0.19613 0.92694 0.01100
C 	C 	0.01730 0.31593 0.80934 -0.06500
C 	C 	0.94560 0.08006 0.91348 -0.14100
C 	C 	0.01720 0.31201 0.68938 0.07900
C 	C 	0.94550 0.08605 0.78950 0.03300
C 	C 	0.22760 0.91220 0.54240 0.37000
N 	N 	0.49570 0.49877 0.69206 -0.25300
N 	N 	0.48190 0.87540 0.32300 -0.21200
N 	N 	0.99570 0.19083 0.30794 -0.27200
N 	N 	0.98190 0.19840 0.67700 -0.26100
O 	O 	0.63810 0.58053 0.40718 -0.44300
O 	O 	0.84320 0.40619 0.39864 -0.45100
O 	O 	0.13810 0.98771 0.59282 -0.40500
O 	O 	0.34320 0.80483 0.60136 -0.43100
