data_crystal

_audit_creation_method 'AiiDA-DDEC plugin'

_cell_length_a        16.94712
_cell_length_b        16.94766
_cell_length_c        16.94993

_cell_angle_alpha     89.97431
_cell_angle_beta     89.98242
_cell_angle_gamma     90.00811

_symmetry_space_group_name_Hall 'P 1'
_symmetry_space_group_name_H-M  'P 1'

loop_
_symmetry_equiv_pos_as_xyz
 'x,y,z'

loop_
_atom_site_label
_atom_site_type_symbol
_atom_site_fract_x
_atom_site_fract_y
_atom_site_fract_z
_atom_site_charge
Co         Co      0.49991   0.74995  -0.00012   0.71399
Co         Co      0.50005   0.24999   0.00015   0.70898
Co         Co     -0.00005   0.50004   0.74995   0.71804
Co         Co     -0.00005   0.49988   0.25004   0.70413
Co         Co      0.74998  -0.00003   0.50000   0.70898
Co         Co      0.24997   0.00001   0.50005   0.70912
Co         Co      0.74997   0.50005   0.00010   0.70482
Co         Co      0.24990   0.49986   0.00003   0.70890
Co         Co      0.49995   0.00020   0.75002   0.70952
Co         Co      0.49998  -0.00021   0.25003   0.70943
Co         Co     -0.00006   0.75000   0.49980   0.70974
Co         Co     -0.00006   0.24994   0.50009   0.70478
H          H       0.46645   0.58011   0.08659   0.15447
H          H       0.53354   0.41992   0.08640   0.15488
H          H       0.53367   0.58014   0.91350   0.15255
H          H       0.08646   0.46630   0.58020   0.15277
H          H       0.91335   0.53354   0.58011   0.15435
H          H       0.91363   0.46644   0.41992   0.15510
H          H       0.58013   0.08661   0.46636   0.15235
H          H       0.58014   0.91340   0.53366   0.15233
H          H       0.41974   0.46633   0.91360   0.15310
H          H       0.46633   0.08637   0.58017   0.15299
H          H       0.46631   0.91366   0.41982   0.15289
H          H       0.08645   0.58021   0.46638   0.15280
H          H       0.96631   0.08018   0.58630   0.15329
H          H       0.96632   0.91984   0.41364   0.15293
H          H       0.58638   0.96640   0.08019   0.15482
H          H       0.58644   0.03354   0.91985   0.15487
H          H       0.91984   0.58633   0.03369   0.15305
H          H       0.08015   0.96636   0.58660   0.15246
H          H       0.08009   0.03357   0.41333   0.15216
H          H       0.03365   0.58657   0.91978   0.15266
H          H       0.96640   0.41336   0.91982   0.15258
H          H       0.41357   0.08016   0.03355   0.15493
H          H       0.41352   0.91983   0.96646   0.15477
H          H       0.36914   0.54565   0.10716   0.14613
H          H       0.63082   0.45435   0.10703   0.14550
H          H       0.63089   0.54563   0.89300   0.14701
H          H       0.10701   0.36910   0.54567   0.14725
H          H       0.89284   0.63084   0.54566   0.14616
H          H       0.89291   0.36917   0.45438   0.14573
H          H       0.54563   0.10708   0.36915   0.14704
H          H       0.54560   0.89290   0.63087   0.14705
H          H       0.45430   0.36914   0.89300   0.14660
H          H       0.36913   0.10702   0.54566   0.14658
H          H       0.36911   0.89298   0.45437   0.14680
H          H       0.10707   0.54569   0.36919   0.14658
H          H       0.86912   0.04562   0.60701   0.14671
H          H       0.86912   0.95436   0.39299   0.14667
H          H       0.60708   0.86915   0.04570   0.14582
H          H       0.60711   0.13081   0.95429   0.14580
H          H       0.95436   0.60697   0.13086   0.14666
H          H       0.04559   0.39293   0.13084   0.14677
H          H       0.04561   0.86913   0.60709   0.14702
H          H       0.04562   0.13082   0.39289   0.14682
H          H       0.13086   0.60705   0.95428   0.14698
H          H       0.86914   0.39289   0.95434   0.14705
H          H       0.39288   0.04567   0.13082   0.14577
H          H       0.39289   0.95431   0.86919   0.14592
H          H       0.39728   0.64411   0.13150   0.14040
H          H       0.60263   0.35592   0.13151   0.13937
H          H       0.60281   0.64413   0.86847   0.14032
H          H       0.13154   0.39718   0.64414   0.14050
H          H       0.86841   0.60269   0.64412   0.14052
H          H       0.86852   0.39736   0.35594   0.13953
H          H       0.64415   0.13152   0.39719   0.14077
H          H       0.64414   0.86848   0.60280   0.14071
H          H       0.35580   0.39722   0.86851   0.14021
H          H       0.39724   0.13153   0.64412   0.13991
H          H       0.39724   0.86848   0.35591   0.13960
H          H       0.13151   0.64419   0.39724   0.14042
H          H       0.89722   0.14411   0.63148   0.13982
H          H       0.89724   0.85588   0.36849   0.13973
H          H       0.63150   0.89728   0.14415   0.14033
H          H       0.63151   0.10269   0.85585   0.14039
H          H       0.85586   0.63147   0.10277   0.13989
H          H       0.14408   0.36848   0.10273   0.13930
H          H       0.14414   0.89720   0.63150   0.14076
H          H       0.14414   0.10277   0.36848   0.14047
H          H       0.10282   0.63157   0.85580   0.14080
H          H       0.89724   0.36845   0.85585   0.14047
H          H       0.36849   0.14413   0.10266   0.13996
H          H       0.36844   0.85586   0.89736   0.14023
H          H       0.38810   0.72693   0.84900   0.10715
H          H       0.61281   0.27168   0.84983   0.10833
H          H       0.61223   0.72819   0.15027   0.10941
H          H       0.38856   0.27299   0.15102   0.10750
H          H       0.84894   0.38844   0.72707   0.10758
H          H       0.84971   0.61214   0.27187   0.10958
H          H       0.15095   0.61189   0.72692   0.10703
H          H       0.15027   0.38715   0.27170   0.10814
H          H       0.72818   0.84971   0.38767   0.10930
H          H       0.27285   0.84908   0.61199   0.10657
H          H       0.72819   0.15029   0.61231   0.10924
H          H       0.27284   0.15091   0.38802   0.10663
H          H       0.72833   0.38736   0.84982   0.10896
H          H       0.27182   0.61215   0.84984   0.10990
H          H       0.72712   0.61208   0.15086   0.10684
H          H       0.27268   0.38803   0.15093   0.10698
H          H       0.38741   0.84978   0.72844   0.10889
H          H       0.61173   0.84907   0.27311   0.10703
H          H       0.61173   0.15093   0.72691   0.10710
H          H       0.38742   0.15022   0.27155   0.10881
H          H       0.84906   0.72719   0.38780   0.10651
H          H       0.84911   0.27277   0.61188   0.10670
H          H       0.15019   0.72817   0.61217   0.10994
H          H       0.15018   0.27163   0.38738   0.10871
H          H       0.88739   0.22842   0.34975   0.10897
H          H       0.11172   0.77311   0.34907   0.10718
H          H       0.11239   0.22802   0.65021   0.10936
H          H       0.88742   0.77157   0.65022   0.10919
H          H       0.34907   0.88797   0.22725   0.10670
H          H       0.34909   0.11225   0.77286   0.10692
H          H       0.65024   0.11209   0.22818   0.10971
H          H       0.65026   0.88789   0.77185   0.10955
H          H       0.22695   0.34905   0.88845   0.10776
H          H       0.77156   0.34974   0.11259   0.10907
H          H       0.22833   0.65024   0.11278   0.10849
H          H       0.77191   0.65022   0.88779   0.10980
H          H       0.22820   0.88769   0.34971   0.10913
H          H       0.77281   0.11195   0.34910   0.10656
H          H       0.22808   0.11254   0.65028   0.10930
H          H       0.77283   0.88802   0.65092   0.10660
H          H       0.88800   0.34904   0.22719   0.10645
H          H       0.11162   0.34907   0.77294   0.10714
H          H       0.11266   0.65015   0.22830   0.10907
H          H       0.88817   0.65101   0.77298   0.10689
H          H       0.34975   0.22819   0.88791   0.10948
H          H       0.34900   0.77295   0.11142   0.10774
H          H       0.65094   0.22719   0.11223   0.10668
H          H       0.65089   0.77280   0.88780   0.10678
H          H       0.08011   0.41360   0.03365   0.15251
C          C       0.40370   0.59676   0.08759  -0.48286
C          C       0.59627   0.40323   0.08752  -0.48093
C          C       0.59642   0.59682   0.91247  -0.48196
C          C       0.40309   0.40358   0.91248  -0.48089
C          C       0.08754   0.40355   0.59686  -0.48188
C          C       0.08753   0.59687   0.40363  -0.48140
C          C       0.91237   0.59628   0.59678  -0.48297
C          C       0.91248   0.40370   0.40326  -0.48163
C          C       0.59680   0.08758   0.40362  -0.48247
C          C       0.40358   0.08754   0.59684  -0.48055
C          C       0.59679   0.91241   0.59640  -0.48249
C          C       0.40357   0.91248   0.40317  -0.48057
C          C       0.90356   0.09683   0.58749  -0.48079
C          C       0.09680   0.90361   0.58758  -0.48261
C          C       0.09677   0.09632   0.41241  -0.48190
C          C       0.90357   0.90316   0.41247  -0.48044
C          C       0.58753   0.90364   0.09684  -0.48194
C          C       0.58754   0.09629   0.90318  -0.48234
C          C       0.41246   0.09681   0.09629  -0.48226
C          C       0.41243   0.90317   0.90373  -0.48229
C          C       0.09639   0.58758   0.90311  -0.48224
C          C       0.90316   0.58749   0.09643  -0.48025
C          C       0.09678   0.41246   0.09637  -0.48037
C          C       0.90366   0.41239   0.90317  -0.48250
C          C       0.37723   0.62275   0.00782   0.36195
C          C       0.62284   0.37709   0.00784   0.36833
C          C       0.62281   0.62292   0.99219   0.36629
C          C       0.37705   0.37713   0.99224   0.36583
C          C       0.00777   0.37715   0.62294   0.36695
C          C       0.00778   0.62288   0.37715   0.36577
C          C       0.99215   0.62275   0.62276   0.36177
C          C       0.99218   0.37712   0.37714   0.36828
C          C       0.62284   0.00781   0.37725   0.36281
C          C       0.37709   0.00782   0.62298   0.36893
C          C       0.62282   0.99218   0.62277   0.36247
C          C       0.37707   0.99218   0.37704   0.36842
C          C       0.87705   0.12295   0.50780   0.36891
C          C       0.12284   0.87723   0.50782   0.36336
C          C       0.12281   0.12272   0.49216   0.36153
C          C       0.87708   0.87703   0.49218   0.36878
C          C       0.50777   0.87712   0.12286   0.36567
C          C       0.50780   0.12283   0.87718   0.36540
C          C       0.49220   0.12282   0.12283   0.36526
C          C       0.49217   0.87715   0.87720   0.36530
C          C       0.12274   0.50780   0.87710   0.36279
C          C       0.87703   0.50778   0.12292   0.36877
C          C       0.12290   0.49215   0.12289   0.36841
C          C       0.87726   0.49218   0.87717   0.36219
C          C       0.37154   0.68543   0.89463  -0.07356
C          C       0.62883   0.31391   0.89495  -0.06890
C          C       0.62837   0.68603   0.10515  -0.06591
C          C       0.37184   0.31446   0.10547  -0.07439
C          C       0.89452   0.37181   0.68560  -0.07107
C          C       0.89480   0.62835   0.31402  -0.07026
C          C       0.10533   0.62842   0.68544  -0.07372
C          C       0.10511   0.37113   0.31392  -0.06936
C          C       0.68595   0.89483   0.37160  -0.06736
C          C       0.31437   0.89464   0.62856  -0.07631
C          C       0.68596   0.10517   0.62840  -0.06687
C          C       0.31436   0.10535   0.37145  -0.07595
C          C       0.68609   0.37127   0.89493  -0.07290
C          C       0.31405   0.62828   0.89488  -0.07159
C          C       0.68554   0.62857   0.10533  -0.07798
C          C       0.31432   0.37160   0.10542  -0.07205
C          C       0.37138   0.89486   0.68617  -0.06784
C          C       0.62836   0.89462   0.31459  -0.07706
C          C       0.62835   0.10538   0.68542  -0.07695
C          C       0.37138   0.10513   0.31382  -0.06766
C          C       0.89462   0.68560   0.37137  -0.07391
C          C       0.89459   0.31440   0.62838  -0.07557
C          C       0.10512   0.68594   0.62831  -0.07121
C          C       0.10510   0.31388   0.37130  -0.07240
C          C       0.87135   0.18615   0.39485  -0.06789
C          C       0.12835   0.81459   0.39462  -0.07710
C          C       0.12855   0.18584   0.60511  -0.07285
C          C       0.87138   0.81383   0.60514  -0.06778
C          C       0.39459   0.87154   0.18561  -0.07189
C          C       0.39466   0.12867   0.81445  -0.07479
C          C       0.60516   0.12829   0.18601  -0.06972
C          C       0.60515   0.87168   0.81401  -0.07001
C          C       0.18543   0.39459   0.87183  -0.07622
C          C       0.81383   0.39482   0.12863  -0.06779
C          C       0.18611   0.60508   0.12881  -0.06939
C          C       0.81411   0.60515   0.87164  -0.07171
C          C       0.18597   0.87161   0.39483  -0.06719
C          C       0.81433   0.12852   0.39464  -0.07588
C          C       0.18590   0.12861   0.60512  -0.06912
C          C       0.81435   0.87145   0.60536  -0.07633
C          C       0.87142   0.39459   0.18565  -0.07625
C          C       0.12816   0.39462   0.81446  -0.07095
C          C       0.12875   0.60506   0.18608  -0.07286
C          C       0.87161   0.60539   0.81449  -0.07266
C          C       0.39484   0.18601   0.87170  -0.06991
C          C       0.39454   0.81443   0.12810  -0.07466
C          C       0.60535   0.18558   0.12865  -0.07430
C          C       0.60532   0.81440   0.87139  -0.07467
N          N       0.41128   0.68210   0.96621  -0.37555
N          N       0.58906   0.31743   0.96653  -0.37710
N          N       0.58889   0.68256   0.03347  -0.37739
N          N       0.41129   0.31784   0.03372  -0.37281
N          N       0.96625   0.41127   0.68231  -0.37569
N          N       0.96652   0.58885   0.31760  -0.37429
N          N       0.03373   0.58867   0.68209  -0.37571
N          N       0.03353   0.41089   0.31745  -0.37544
N          N       0.68254   0.96653   0.41107  -0.37676
N          N       0.31781   0.96630   0.58885  -0.37346
N          N       0.68255   0.03347   0.58893  -0.37710
N          N       0.31780   0.03370   0.41118  -0.37332
N          N       0.68243   0.41102   0.96652  -0.37489
N          N       0.31761   0.58877   0.96661  -0.37523
N          N       0.68217   0.58888   0.03368  -0.37406
N          N       0.31748   0.41100   0.03363  -0.37551
N          N       0.41083   0.96661   0.68276  -0.37693
N          N       0.58863   0.96625   0.31803  -0.37391
N          N       0.58861   0.03374   0.68199  -0.37361
N          N       0.41083   0.03340   0.31724  -0.37704
N          N       0.96626   0.68232   0.41106  -0.37571
N          N       0.96639   0.31768   0.58895  -0.37360
N          N       0.03341   0.68240   0.58880  -0.37557
N          N       0.03348   0.31755   0.41108  -0.37510
N          N       0.91079   0.18276   0.46657  -0.37602
N          N       0.08861   0.81802   0.46625  -0.37412
N          N       0.08879   0.18221   0.53352  -0.37525
N          N       0.91083   0.81724   0.53340  -0.37702
N          N       0.46637   0.91096   0.18244  -0.37519
N          N       0.46629   0.08895   0.81773  -0.37564
N          N       0.53345   0.08877   0.18240  -0.37502
N          N       0.53345   0.91119   0.81761  -0.37499
N          N       0.18210   0.46635   0.91126  -0.37300
N          N       0.81725   0.46657   0.08917  -0.37648
N          N       0.18257   0.53350   0.08908  -0.37679
N          N       0.81763   0.53341   0.91113  -0.37507
N          N       0.18257   0.91106   0.46653  -0.37713
N          N       0.81778   0.08880   0.46629  -0.37385
N          N       0.18239   0.08885   0.53356  -0.37718
N          N       0.81779   0.91115   0.53370  -0.37335
N          N       0.91113   0.46625   0.18221  -0.37265
N          N       0.08871   0.46635   0.81766  -0.37604
N          N       0.08899   0.53345   0.18246  -0.37461
N          N       0.91133   0.53379   0.81783  -0.37601
N          N       0.46654   0.18240   0.91121  -0.37479
N          N       0.46629   0.81784   0.08862  -0.37351
N          N       0.53374   0.18231   0.08894  -0.37563
N          N       0.53369   0.81769   0.91111  -0.37598

