data_crystal

_cell_length_a 12.17990
_cell_length_b 16.98360
_cell_length_c 25.78020
_cell_angle_alpha 102.10900
_cell_angle_beta  90.00000
_cell_angle_gamma 90.00000

_symmetry_space_group_name_	'P 1'
_symmetry_space_group_name_H-M	'P 1'

loop_
_symmetry_equiv_pos_as_xyz
  x,y,z

loop_
_atom_site_label
_atom_site_type_symbol
_atom_site_fract_x
_atom_site_fract_y
_atom_site_fract_z
_atom_site_charge
Nd	Nd	0.47639 0.48566 0.41848 1.97500
Nd	Nd	0.99845 0.96057 0.41749 1.96500
Nd	Nd	0.47639 0.01434 0.08152 1.97200
Nd	Nd	0.99845 0.53943 0.08251 1.97800
Nd	Nd	0.52361 0.51434 0.58152 1.97400
Nd	Nd	0.00155 0.03943 0.58251 1.96400
Nd	Nd	0.52361 0.98566 0.91848 1.97200
Nd	Nd	0.00155 0.46057 0.91749 1.97800
H 	H 	0.71470 0.67000 0.57920 -0.03900
H 	H 	0.82500 0.79400 0.59460 0.01800
H 	H 	0.48970 0.58080 0.23900 0.02900
H 	H 	0.60000 0.58860 0.16150 0.04500
H 	H 	0.26830 0.74420 0.60240 0.03100
H 	H 	0.17320 0.86470 0.58930 0.03000
H 	H 	0.71470 0.83000 0.92080 -0.04000
H 	H 	0.82500 0.70600 0.90540 0.01800
H 	H 	0.48970 0.91920 0.26100 0.02900
H 	H 	0.60000 0.91140 0.33850 0.04600
H 	H 	0.26830 0.75580 0.89760 0.03100
H 	H 	0.17320 0.63530 0.91070 0.02900
H 	H 	0.28530 0.33000 0.42080 -0.03900
H 	H 	0.17500 0.20600 0.40540 0.01800
H 	H 	0.51030 0.41920 0.76100 0.02900
H 	H 	0.40000 0.41140 0.83850 0.04500
H 	H 	0.73170 0.25580 0.39760 0.03100
H 	H 	0.82680 0.13530 0.41070 0.03000
H 	H 	0.28530 0.17000 0.07920 -0.04000
H 	H 	0.17500 0.29400 0.09460 0.01800
H 	H 	0.51030 0.08080 0.73900 0.02900
H 	H 	0.40000 0.08860 0.66150 0.04600
H 	H 	0.73170 0.24420 0.10240 0.03100
H 	H 	0.82680 0.36470 0.08930 0.02900
C 	C 	0.72000 0.66430 0.49960 -0.16700
C 	C 	0.74000 0.69390 0.55220 0.02300
C 	C 	0.80510 0.76540 0.56110 -0.00400
C 	C 	0.83410 0.78660 0.51590 -0.16400
C 	C 	0.65030 0.59570 0.47540 0.44400
C 	C 	0.89730 0.85850 0.51120 0.50800
C 	C 	0.60670 0.51610 0.26530 -0.10100
C 	C 	0.55870 0.55730 0.23260 -0.00700
C 	C 	0.62210 0.56200 0.18780 -0.02800
C 	C 	0.72020 0.52290 0.18760 -0.09000
C 	C 	0.56310 0.50040 0.31560 0.34600
C 	C 	0.81070 0.52080 0.14940 0.31300
C 	C 	0.31480 0.71800 0.52520 -0.14800
C 	C 	0.26520 0.75990 0.57000 0.00400
C 	C 	0.20900 0.82890 0.56240 -0.00100
C 	C 	0.21340 0.83710 0.51080 -0.13100
C 	C 	0.38120 0.64300 0.51730 0.47500
C 	C 	0.16000 0.89770 0.48520 0.43200
C 	C 	0.72000 0.83570 0.00040 -0.16700
C 	C 	0.74000 0.80610 0.94780 0.02200
C 	C 	0.80510 0.73460 0.93890 -0.00400
C 	C 	0.83410 0.71340 0.98410 -0.16500
C 	C 	0.65030 0.90430 0.02460 0.44500
C 	C 	0.89730 0.64150 0.98880 0.51000
C 	C 	0.60670 0.98390 0.23470 -0.10300
C 	C 	0.55870 0.94270 0.26740 -0.00600
C 	C 	0.62210 0.93800 0.31220 -0.02900
C 	C 	0.72020 0.97710 0.31240 -0.09100
C 	C 	0.56310 0.99960 0.18440 0.34600
C 	C 	0.81070 0.97920 0.35060 0.30700
C 	C 	0.31480 0.78200 0.97480 -0.14900
C 	C 	0.26520 0.74010 0.93000 0.00200
C 	C 	0.20900 0.67110 0.93760 0.00100
C 	C 	0.21340 0.66290 0.98920 -0.13600
C 	C 	0.38120 0.85700 0.98270 0.47300
C 	C 	0.16000 0.60230 0.01480 0.43700
C 	C 	0.28000 0.33570 0.50040 -0.16700
C 	C 	0.26000 0.30610 0.44780 0.02300
C 	C 	0.19490 0.23460 0.43890 -0.00400
C 	C 	0.16590 0.21340 0.48410 -0.16400
C 	C 	0.34970 0.40430 0.52460 0.44400
C 	C 	0.10270 0.14150 0.48880 0.50800
C 	C 	0.39330 0.48390 0.73470 -0.10100
C 	C 	0.44130 0.44270 0.76740 -0.00700
C 	C 	0.37790 0.43800 0.81220 -0.02800
C 	C 	0.27980 0.47710 0.81240 -0.09000
C 	C 	0.43690 0.49960 0.68440 0.34600
C 	C 	0.18930 0.47920 0.85060 0.31300
C 	C 	0.68520 0.28200 0.47480 -0.14800
C 	C 	0.73480 0.24010 0.43000 0.00400
C 	C 	0.79100 0.17110 0.43760 -0.00100
C 	C 	0.78660 0.16290 0.48920 -0.13100
C 	C 	0.61880 0.35700 0.48270 0.47500
C 	C 	0.84000 0.10230 0.51480 0.43200
C 	C 	0.28000 0.16430 0.99960 -0.16700
C 	C 	0.26000 0.19390 0.05220 0.02200
C 	C 	0.19490 0.26540 0.06110 -0.00400
C 	C 	0.16590 0.28660 0.01590 -0.16500
C 	C 	0.34970 0.09570 0.97540 0.44500
C 	C 	0.10270 0.35850 0.01120 0.51000
C 	C 	0.39330 0.01610 0.76530 -0.10300
C 	C 	0.44130 0.05730 0.73260 -0.00600
C 	C 	0.37790 0.06200 0.68780 -0.02900
C 	C 	0.27980 0.02290 0.68760 -0.09100
C 	C 	0.43690 0.00040 0.81560 0.34600
C 	C 	0.18930 0.02080 0.64940 0.30700
C 	C 	0.68520 0.21800 0.02520 -0.14900
C 	C 	0.73480 0.25990 0.07000 0.00200
C 	C 	0.79100 0.32890 0.06240 0.00100
C 	C 	0.78660 0.33710 0.01080 -0.13600
C 	C 	0.61880 0.14300 0.01730 0.47300
C 	C 	0.84000 0.39770 0.98520 0.43700
S 	S 	0.78220 0.72186 0.46236 0.08700
S 	S 	0.73240 0.48023 0.24149 0.04600
S 	S 	0.28940 0.76160 0.47207 0.06200
S 	S 	0.78220 0.77814 0.03764 0.08600
S 	S 	0.73240 0.01977 0.25851 0.05100
S 	S 	0.28940 0.73840 0.02793 0.06500
S 	S 	0.21780 0.27814 0.53764 0.08700
S 	S 	0.26760 0.51977 0.75851 0.04600
S 	S 	0.71060 0.23840 0.52793 0.06200
S 	S 	0.21780 0.22186 0.96236 0.08600
S 	S 	0.26760 0.98023 0.74149 0.05100
S 	S 	0.71060 0.26160 0.97207 0.06500
O 	O 	0.60850 0.55320 0.50560 -0.59700
O 	O 	0.63350 0.58280 0.42760 -0.45300
O 	O 	0.92350 0.86340 0.46500 -0.52800
O 	O 	0.91900 0.90720 0.55270 -0.54400
O 	O 	0.61060 0.45240 0.33800 -0.41300
O 	O 	0.47770 0.53680 0.33450 -0.46500
O 	O 	0.79890 0.55980 0.11260 -0.41000
O 	O 	0.89620 0.48250 0.15330 -0.44900
O 	O 	0.40950 0.61320 0.47110 -0.52600
O 	O 	0.40000 0.61550 0.55800 -0.51400
O 	O 	0.16510 0.88670 0.43600 -0.50500
O 	O 	0.11280 0.95740 0.51350 -0.55100
O 	O 	0.60850 0.94680 0.99440 -0.59800
O 	O 	0.63350 0.91720 0.07240 -0.45300
O 	O 	0.92350 0.63660 0.03500 -0.53000
O 	O 	0.91900 0.59280 0.94730 -0.54400
O 	O 	0.61060 0.04760 0.16200 -0.41200
O 	O 	0.47770 0.96320 0.16550 -0.46400
O 	O 	0.79890 0.94020 0.38740 -0.40900
O 	O 	0.89620 0.01750 0.34670 -0.44100
O 	O 	0.40950 0.88680 0.02890 -0.52300
O 	O 	0.40000 0.88450 0.94200 -0.51300
O 	O 	0.16510 0.61330 0.06400 -0.50900
O 	O 	0.11280 0.54260 0.98650 -0.55900
O 	O 	0.39150 0.44680 0.49440 -0.59700
O 	O 	0.36650 0.41720 0.57240 -0.45300
O 	O 	0.07650 0.13660 0.53500 -0.52800
O 	O 	0.08100 0.09280 0.44730 -0.54400
O 	O 	0.38940 0.54760 0.66200 -0.41300
O 	O 	0.52230 0.46320 0.66550 -0.46500
O 	O 	0.20110 0.44020 0.88740 -0.41000
O 	O 	0.10380 0.51750 0.84670 -0.44900
O 	O 	0.59050 0.38680 0.52890 -0.52600
O 	O 	0.60000 0.38450 0.44200 -0.51400
O 	O 	0.83490 0.11330 0.56400 -0.50500
O 	O 	0.88720 0.04260 0.48650 -0.55100
O 	O 	0.39150 0.05320 0.00560 -0.59800
O 	O 	0.36650 0.08280 0.92760 -0.45300
O 	O 	0.07650 0.36340 0.96500 -0.53000
O 	O 	0.08100 0.40720 0.05270 -0.54400
O 	O 	0.38940 0.95240 0.83800 -0.41200
O 	O 	0.52230 0.03680 0.83450 -0.46400
O 	O 	0.20110 0.05980 0.61260 -0.40900
O 	O 	0.10380 0.98250 0.65330 -0.44100
O 	O 	0.59050 0.11320 0.97110 -0.52300
O 	O 	0.60000 0.11550 0.05800 -0.51300
O 	O 	0.83490 0.38670 0.93600 -0.50900
O 	O 	0.88720 0.45740 0.01350 -0.55900
