data_crystal

_cell_length_a 6.42750
_cell_length_b 10.97640
_cell_length_c 16.38700
_cell_angle_alpha 90.00000
_cell_angle_beta  90.00000
_cell_angle_gamma 99.18200

_symmetry_space_group_name_	'P 1'
_symmetry_space_group_name_H-M	'P 1'

loop_
_symmetry_equiv_pos_as_xyz
  x,y,z

loop_
_atom_site_label
_atom_site_type_symbol
_atom_site_fract_x
_atom_site_fract_y
_atom_site_fract_z
_atom_site_charge
Ca	Ca	0.78221 0.58060 0.95785 1.50200
Ca	Ca	0.71779 0.91940 0.45785 1.50100
Ca	Ca	0.21779 0.41940 0.04215 1.50300
Ca	Ca	0.28221 0.08060 0.54215 1.50200
H 	H 	0.22230 0.75560 0.76210 0.03600
H 	H 	0.80410 0.86340 0.67540 0.02900
H 	H 	0.92750 0.76800 0.78520 0.02300
H 	H 	0.27770 0.74440 0.26210 0.03600
H 	H 	0.69590 0.63660 0.17540 0.03200
H 	H 	0.57250 0.73200 0.28520 0.02400
H 	H 	0.77770 0.24440 0.23790 0.03600
H 	H 	0.19590 0.13660 0.32460 0.02900
H 	H 	0.07250 0.23200 0.21480 0.02300
H 	H 	0.72230 0.25560 0.73790 0.03600
H 	H 	0.30410 0.36340 0.82460 0.03200
H 	H 	0.42750 0.26800 0.71480 0.02400
C 	C 	0.45150 0.70000 0.82904 -0.07800
C 	C 	0.39800 0.88480 0.63807 0.37000
C 	C 	0.36740 0.75790 0.76517 0.02700
C 	C 	0.71080 0.82270 0.71362 -0.02300
C 	C 	0.49600 0.81930 0.70571 -0.10700
C 	C 	0.31010 0.63560 0.89571 0.38900
C 	C 	0.78260 0.76400 0.77979 0.00900
C 	C 	0.04850 0.80000 0.32904 -0.07400
C 	C 	0.10200 0.61520 0.13807 0.36900
C 	C 	0.13260 0.74210 0.26517 0.02500
C 	C 	0.78920 0.67730 0.21362 -0.02600
C 	C 	0.00400 0.68070 0.20571 -0.10400
C 	C 	0.18990 0.86440 0.39571 0.38900
C 	C 	0.71740 0.73600 0.27979 0.01100
C 	C 	0.54850 0.30000 0.17096 -0.07800
C 	C 	0.60200 0.11520 0.36193 0.37000
C 	C 	0.63260 0.24210 0.23483 0.02700
C 	C 	0.28920 0.17730 0.28638 -0.02300
C 	C 	0.50400 0.18070 0.29429 -0.10700
C 	C 	0.68990 0.36440 0.10429 0.38900
C 	C 	0.21740 0.23600 0.22021 0.00900
C 	C 	0.95150 0.20000 0.67096 -0.07400
C 	C 	0.89800 0.38480 0.86193 0.36900
C 	C 	0.86740 0.25790 0.73483 0.02500
C 	C 	0.21080 0.32270 0.78638 -0.02600
C 	C 	0.99600 0.31930 0.79429 -0.10400
C 	C 	0.81010 0.13560 0.60429 0.38900
C 	C 	0.28260 0.26400 0.72021 0.01100
N 	N 	0.65960 0.70130 0.83710 -0.18700
N 	N 	0.84040 0.79870 0.33710 -0.18900
N 	N 	0.34040 0.29870 0.16290 -0.18700
N 	N 	0.15960 0.20130 0.66290 -0.18900
O 	O 	0.39470 0.57167 0.94634 -0.57400
O 	O 	0.49050 0.89932 0.57063 -0.55100
O 	O 	0.23080 0.92408 0.65317 -0.41400
O 	O 	0.12390 0.65404 0.89496 -0.45300
O 	O 	0.10530 0.92833 0.44634 -0.57200
O 	O 	0.00950 0.60068 0.07063 -0.55000
O 	O 	0.26920 0.57592 0.15317 -0.41600
O 	O 	0.37610 0.84596 0.39496 -0.45500
O 	O 	0.60530 0.42833 0.05366 -0.57400
O 	O 	0.50950 0.10068 0.42937 -0.55100
O 	O 	0.76920 0.07592 0.34683 -0.41400
O 	O 	0.87610 0.34596 0.10504 -0.45300
O 	O 	0.89470 0.07167 0.55366 -0.57200
O 	O 	0.99050 0.39932 0.92937 -0.55000
O 	O 	0.73080 0.42408 0.84683 -0.41600
O 	O 	0.62390 0.15404 0.60504 -0.45500
