data_crystal

_cell_length_a 8.68800
_cell_length_b 18.21860
_cell_length_c 18.21860
_cell_angle_alpha 120.00000
_cell_angle_beta  90.00000
_cell_angle_gamma 90.00000

_symmetry_space_group_name_	'P 1'
_symmetry_space_group_name_H-M	'P 1'

loop_
_symmetry_equiv_pos_as_xyz
  x,y,z

loop_
_atom_site_label
_atom_site_type_symbol
_atom_site_fract_x
_atom_site_fract_y
_atom_site_fract_z
_atom_site_charge
Na	Na	0.82368 0.36165 0.72521 0.58200
Na	Na	0.82161 0.25908 0.51105 0.57800
Na	Na	0.15701 0.36356 0.63835 0.58400
Na	Na	0.15494 0.25197 0.74092 0.58300
Na	Na	0.49035 0.27479 0.63644 0.58200
Na	Na	0.48828 0.48895 0.74803 0.58100
Na	Na	0.32368 0.63835 0.27479 0.58300
Na	Na	0.32161 0.74092 0.48895 0.58200
Na	Na	0.65701 0.63644 0.36165 0.58200
Na	Na	0.65494 0.74803 0.25908 0.58100
Na	Na	0.99035 0.72521 0.36356 0.57800
Na	Na	0.98828 0.51105 0.25197 0.57600
H 	H 	0.88350 0.05640 0.49230 0.02900
H 	H 	0.55280 0.87530 0.62150 0.06300
H 	H 	0.65640 0.16310 0.75470 0.05400
H 	H 	0.47370 0.96440 0.75690 0.02400
H 	H 	0.52520 0.10770 0.82280 0.03900
H 	H 	0.83470 0.91350 0.42520 0.01300
H 	H 	0.21683 0.43590 0.94360 0.02100
H 	H 	0.88613 0.74620 0.12470 0.02300
H 	H 	0.98973 0.59160 0.83690 0.09100
H 	H 	0.80703 0.79250 0.03560 0.05500
H 	H 	0.85853 0.71510 0.89230 -0.00000
H 	H 	0.16803 0.51170 0.08650 0.03800
H 	H 	0.55017 0.50770 0.56410 0.03500
H 	H 	0.21947 0.37850 0.25380 0.06000
H 	H 	0.32307 0.24530 0.40840 0.06000
H 	H 	0.14037 0.24310 0.20750 0.03300
H 	H 	0.19187 0.17720 0.28490 0.03700
H 	H 	0.50137 0.57480 0.48830 0.02200
H 	H 	0.38350 0.94360 0.50770 0.03800
H 	H 	0.05280 0.12470 0.37850 0.08500
H 	H 	0.15640 0.83690 0.24530 0.04700
H 	H 	0.97370 0.03560 0.24310 -0.03300
H 	H 	0.02520 0.89230 0.17720 0.07000
H 	H 	0.33470 0.08650 0.57480 0.02100
H 	H 	0.71683 0.56410 0.05640 0.02500
H 	H 	0.38613 0.25380 0.87530 0.05000
H 	H 	0.48973 0.40840 0.16310 0.06800
H 	H 	0.30703 0.20750 0.96440 0.04100
H 	H 	0.35853 0.28490 0.10770 0.02300
H 	H 	0.66803 0.48830 0.91350 0.02700
H 	H 	0.05017 0.49230 0.43590 0.07100
H 	H 	0.71947 0.62150 0.74620 0.05900
H 	H 	0.82307 0.75470 0.59160 0.05300
H 	H 	0.64037 0.75690 0.79250 0.02600
H 	H 	0.69187 0.82280 0.71510 0.03600
H 	H 	0.00137 0.42520 0.51170 0.05200
C 	C 	0.80600 0.18149 0.64090 0.35100
C 	C 	0.77480 0.08731 0.60051 -0.10700
C 	C 	0.65850 0.96417 0.60114 0.05600
C 	C 	0.69230 0.05301 0.64342 0.02200
C 	C 	0.82680 0.03435 0.52010 -0.03400
C 	C 	0.57510 0.93285 0.64708 -0.10400
C 	C 	0.63760 0.10511 0.72718 -0.07400
C 	C 	0.52780 0.98610 0.72790 -0.01300
C 	C 	0.55900 0.07230 0.76760 -0.05100
C 	C 	0.79600 0.94787 0.47946 0.00100
C 	C 	0.71110 0.91117 0.51585 -0.13300
C 	C 	0.67160 0.81838 0.46166 0.36400
C 	C 	0.13933 0.45941 0.81851 0.37100
C 	C 	0.10813 0.51320 0.91269 -0.15500
C 	C 	0.99183 0.63697 0.03583 -0.06200
C 	C 	0.02563 0.59041 0.94699 0.14700
C 	C 	0.16013 0.48575 0.96565 0.01800
C 	C 	0.90843 0.71423 0.06715 -0.01100
C 	C 	0.97093 0.62207 0.89489 -0.20200
C 	C 	0.86113 0.74180 0.01390 -0.11200
C 	C 	0.89233 0.69530 0.92770 0.05400
C 	C 	0.12933 0.53159 0.05213 -0.04400
C 	C 	0.04443 0.60468 0.08883 -0.06000
C 	C 	0.00493 0.64328 0.18162 0.37800
C 	C 	0.47267 0.35910 0.54059 0.35400
C 	C 	0.44147 0.39949 0.48680 -0.11000
C 	C 	0.32517 0.39886 0.36303 0.04500
C 	C 	0.35897 0.35658 0.40959 0.03500
C 	C 	0.49347 0.47990 0.51425 -0.02100
C 	C 	0.24177 0.35292 0.28577 -0.09000
C 	C 	0.30427 0.27282 0.37793 -0.08500
C 	C 	0.19447 0.27210 0.25820 -0.02800
C 	C 	0.22567 0.23240 0.30470 -0.03200
C 	C 	0.46267 0.52054 0.46841 -0.00700
C 	C 	0.37777 0.48415 0.39532 -0.12300
C 	C 	0.33827 0.53834 0.35672 0.36100
C 	C 	0.30600 0.81851 0.35910 0.34900
C 	C 	0.27480 0.91269 0.39949 -0.09600
C 	C 	0.15850 0.03583 0.39886 0.07600
C 	C 	0.19230 0.94699 0.35658 0.01200
C 	C 	0.32680 0.96565 0.47990 -0.02500
C 	C 	0.07510 0.06715 0.35292 -0.15400
C 	C 	0.13760 0.89489 0.27282 -0.03400
C 	C 	0.02780 0.01390 0.27210 0.08100
C 	C 	0.05900 0.92770 0.23240 -0.10100
C 	C 	0.29600 0.05213 0.52054 -0.00100
C 	C 	0.21110 0.08883 0.48415 -0.13300
C 	C 	0.17160 0.18162 0.53834 0.36600
C 	C 	0.63933 0.54059 0.18149 0.35900
C 	C 	0.60813 0.48680 0.08731 -0.12800
C 	C 	0.49183 0.36303 0.96417 0.02100
C 	C 	0.52563 0.40959 0.05301 0.05800
C 	C 	0.66013 0.51425 0.03435 -0.00000
C 	C 	0.40843 0.28577 0.93285 -0.06600
C 	C 	0.47093 0.37793 0.10511 -0.11200
C 	C 	0.36113 0.25820 0.98610 -0.06300
C 	C 	0.39233 0.30470 0.07230 0.00200
C 	C 	0.62933 0.46841 0.94787 -0.03200
C 	C 	0.54443 0.39532 0.91117 -0.11000
C 	C 	0.50493 0.35672 0.81838 0.35500
C 	C 	0.97267 0.64090 0.45941 0.30600
C 	C 	0.94147 0.60051 0.51320 -0.08500
C 	C 	0.82517 0.60114 0.63697 0.04900
C 	C 	0.85897 0.64342 0.59041 0.02000
C 	C 	0.99347 0.52010 0.48575 -0.07400
C 	C 	0.74177 0.64708 0.71423 -0.09800
C 	C 	0.80427 0.72718 0.62207 -0.07600
C 	C 	0.69447 0.72790 0.74180 -0.02200
C 	C 	0.72567 0.76760 0.69530 -0.04300
C 	C 	0.96267 0.47946 0.53159 -0.03600
C 	C 	0.87777 0.51585 0.60468 -0.12100
C 	C 	0.83827 0.46166 0.64328 0.35800
O 	O 	0.73340 0.21950 0.60997 -0.44600
O 	O 	0.89780 0.21587 0.70085 -0.40700
O 	O 	0.74750 0.77665 0.39429 -0.45800
O 	O 	0.56560 0.78670 0.48250 -0.39900
O 	O 	0.06673 0.39047 0.78050 -0.43600
O 	O 	0.23113 0.48498 0.78413 -0.39500
O 	O 	0.08083 0.61764 0.22335 -0.44800
O 	O 	0.89893 0.69580 0.21330 -0.42000
O 	O 	0.40007 0.39003 0.60953 -0.44100
O 	O 	0.56447 0.29915 0.51502 -0.39900
O 	O 	0.41417 0.60571 0.38236 -0.45300
O 	O 	0.23227 0.51750 0.30420 -0.39200
O 	O 	0.23340 0.78050 0.39003 -0.43600
O 	O 	0.39780 0.78413 0.29915 -0.39400
O 	O 	0.24750 0.22335 0.60571 -0.45100
O 	O 	0.06560 0.21330 0.51750 -0.39000
O 	O 	0.56673 0.60953 0.21950 -0.44500
O 	O 	0.73113 0.51502 0.21587 -0.40400
O 	O 	0.58083 0.38236 0.77665 -0.45400
O 	O 	0.39893 0.30420 0.78670 -0.39500
O 	O 	0.90007 0.60997 0.39047 -0.44000
O 	O 	0.06447 0.70085 0.48498 -0.35900
O 	O 	0.91417 0.39429 0.61764 -0.46700
O 	O 	0.73227 0.48250 0.69580 -0.40000
