data_crystal

_cell_length_a 16.96430
_cell_length_b 16.96430
_cell_length_c 7.60670
_cell_angle_alpha 90.00000
_cell_angle_beta  90.00000
_cell_angle_gamma 90.00000

_symmetry_space_group_name_	'P 1'
_symmetry_space_group_name_H-M	'P 1'

loop_
_symmetry_equiv_pos_as_xyz
  x,y,z

loop_
_atom_site_label
_atom_site_type_symbol
_atom_site_fract_x
_atom_site_fract_y
_atom_site_fract_z
_atom_site_charge
O 	O 	0.53480 0.38070 0.01690 -0.56900
N 	N 	0.42300 0.31350 0.07770 -0.30300
H 	H 	0.39800 0.35560 0.04860 0.12800
C 	C 	0.50380 0.31680 0.07200 0.40000
O 	O 	0.03480 0.88070 0.51690 -0.49900
N 	N 	0.92300 0.81350 0.57770 -0.21900
H 	H 	0.89800 0.85560 0.54860 0.16500
C 	C 	0.00380 0.81680 0.57200 0.26600
O 	O 	0.46520 0.61930 0.01690 -0.56700
N 	N 	0.57700 0.68650 0.07770 -0.30000
H 	H 	0.60200 0.64440 0.04860 0.12900
C 	C 	0.49620 0.68320 0.07200 0.40100
O 	O 	0.96520 0.11930 0.51690 -0.55300
N 	N 	0.07700 0.18650 0.57770 -0.38900
H 	H 	0.10200 0.14440 0.54860 0.14200
C 	C 	0.99620 0.18320 0.57200 0.55900
O 	O 	0.38070 0.46520 0.98310 -0.49300
N 	N 	0.31350 0.57700 0.92230 -0.30400
H 	H 	0.35560 0.60200 0.95140 0.17500
C 	C 	0.31680 0.49620 0.92800 0.41500
O 	O 	0.88070 0.96520 0.48310 -0.47800
N 	N 	0.81350 0.07700 0.42230 -0.38300
H 	H 	0.85560 0.10200 0.45140 0.15600
C 	C 	0.81680 0.99620 0.42800 0.55200
O 	O 	0.61930 0.53480 0.98310 -0.49100
N 	N 	0.68650 0.42300 0.92230 -0.30400
H 	H 	0.64440 0.39800 0.95140 0.17500
C 	C 	0.68320 0.50380 0.92800 0.41700
O 	O 	0.11930 0.03480 0.48310 -0.57200
N 	N 	0.18650 0.92300 0.42230 -0.22200
H 	H 	0.14440 0.89800 0.45140 0.14700
C 	C 	0.18320 0.00380 0.42800 0.25900
O 	O 	0.96520 0.38070 0.73310 -0.51600
N 	N 	0.07700 0.31350 0.67230 -0.38700
H 	H 	0.10200 0.35560 0.70140 0.14900
C 	C 	0.99620 0.31680 0.67800 0.55900
O 	O 	0.46520 0.88070 0.23310 -0.49200
N 	N 	0.57700 0.81350 0.17230 -0.30000
H 	H 	0.60200 0.85560 0.20140 0.15900
C 	C 	0.49620 0.81680 0.17800 0.40300
O 	O 	0.03480 0.61930 0.73310 -0.53500
N 	N 	0.92300 0.68650 0.67230 -0.21900
H 	H 	0.89800 0.64440 0.70140 0.15800
C 	C 	0.00380 0.68320 0.67800 0.26500
O 	O 	0.53480 0.11930 0.23310 -0.56700
N 	N 	0.42300 0.18650 0.17230 -0.30700
H 	H 	0.39800 0.14440 0.20140 0.14200
C 	C 	0.50380 0.18320 0.17800 0.40200
O 	O 	0.11930 0.46520 0.76690 -0.56500
N 	N 	0.18650 0.57700 0.82770 -0.30300
H 	H 	0.14440 0.60200 0.79860 0.14600
C 	C 	0.18320 0.49620 0.82200 0.41300
O 	O 	0.61930 0.96520 0.26690 -0.51900
N 	N 	0.68650 0.07700 0.32770 -0.38500
H 	H 	0.64440 0.10200 0.29860 0.14700
C 	C 	0.68320 0.99620 0.32200 0.55400
O 	O 	0.88070 0.53480 0.76690 -0.48900
N 	N 	0.81350 0.42300 0.82770 -0.30100
H 	H 	0.85560 0.39800 0.79860 0.16200
C 	C 	0.81680 0.50380 0.82200 0.41500
O 	O 	0.38070 0.03480 0.26690 -0.54200
N 	N 	0.31350 0.92300 0.32770 -0.22100
H 	H 	0.35560 0.89800 0.29860 0.15500
C 	C 	0.31680 0.00380 0.32200 0.25900
Mg	Mg	0.50000 0.50000 -0.00000 1.45100
Mg	Mg	0.00000 0.00000 0.50000 1.43300
Mg	Mg	0.00000 0.50000 0.75000 1.44600
Mg	Mg	0.50000 0.00000 0.25000 1.44500
S 	S 	0.28243 0.25000 0.12500 -0.16000
C 	C 	0.37840 0.25000 0.12500 0.16700
C 	C 	0.54580 0.25000 0.12500 -0.47500
H 	H 	0.60060 0.25000 0.12500 0.19000
S 	S 	0.71757 0.75000 0.12500 -0.10500
C 	C 	0.62160 0.75000 0.12500 0.16500
C 	C 	0.45420 0.75000 0.12500 -0.46000
H 	H 	0.39940 0.75000 0.12500 0.19300
S 	S 	0.21757 0.25000 0.62500 -0.09900
C 	C 	0.12160 0.25000 0.62500 0.16100
C 	C 	0.95420 0.25000 0.62500 -0.55300
H 	H 	0.89940 0.25000 0.62500 0.23700
S 	S 	0.25000 0.71757 0.87500 -0.04300
C 	C 	0.25000 0.62160 0.87500 0.16800
C 	C 	0.25000 0.45420 0.87500 -0.46700
H 	H 	0.25000 0.39940 0.87500 0.21400
S 	S 	0.75000 0.21757 0.37500 -0.11900
C 	C 	0.75000 0.12160 0.37500 0.16800
C 	C 	0.75000 0.95420 0.37500 -0.53700
H 	H 	0.75000 0.89940 0.37500 0.23900
S 	S 	0.75000 0.28243 0.87500 -0.06300
C 	C 	0.75000 0.37840 0.87500 0.18000
C 	C 	0.75000 0.54580 0.87500 -0.45300
H 	H 	0.75000 0.60060 0.87500 0.22000
S 	S 	0.25000 0.78243 0.37500 -0.10300
C 	C 	0.25000 0.87840 0.37500 0.17500
C 	C 	0.25000 0.04580 0.37500 -0.38900
H 	H 	0.25000 0.10060 0.37500 0.16800
S 	S 	0.78243 0.75000 0.62500 -0.04900
C 	C 	0.87840 0.75000 0.62500 0.17800
C 	C 	0.04580 0.75000 0.62500 -0.37600
H 	H 	0.10060 0.75000 0.62500 0.17300
