data_crystal

_cell_length_a 10.04830
_cell_length_b 13.49690
_cell_length_c 16.73460
_cell_angle_alpha 90.00000
_cell_angle_beta  93.68300
_cell_angle_gamma 90.00000

_symmetry_space_group_name_	'P 1'
_symmetry_space_group_name_H-M	'P 1'

loop_
_symmetry_equiv_pos_as_xyz
  x,y,z

loop_
_atom_site_label
_atom_site_type_symbol
_atom_site_fract_x
_atom_site_fract_y
_atom_site_fract_z
_atom_site_charge
S 	S 	0.29854 0.55461 0.25008 0.07900
S 	S 	0.77207 0.25203 0.29480 0.05300
Mg	Mg	0.40775 0.34378 0.02570 1.47400
Mg	Mg	0.52930 0.10289 0.05125 1.46500
O 	O 	0.38640 0.46066 0.10148 -0.52200
O 	O 	0.92062 0.29501 0.45628 -0.60900
O 	O 	0.62260 0.15887 0.15495 -0.50500
O 	O 	0.93307 0.45451 0.43882 -0.68000
O 	O 	0.14369 0.60059 0.39329 -0.52000
O 	O 	0.19900 0.76129 0.39861 -0.52300
O 	O 	0.48450 0.59248 0.05543 -0.56600
C 	C 	0.19920 0.67740 0.36814 0.43500
C 	C 	0.27190 0.66760 0.29343 -0.11700
C 	C 	0.37090 0.60942 0.17139 -0.15700
C 	C 	0.41820 0.54935 0.10365 0.50700
O 	O 	0.57700 0.29680 0.08853 -0.55600
C 	C 	0.62300 0.25110 0.14897 0.40900
C 	C 	0.68420 0.30970 0.21697 -0.11200
C 	C 	0.81140 0.36394 0.33909 -0.16400
C 	C 	0.89140 0.37013 0.41520 0.47000
C 	C 	0.31610 0.74270 0.24855 -0.01700
H 	H 	0.31020 0.80920 0.26260 0.04700
C 	C 	0.37200 0.70930 0.17833 0.02200
H 	H 	0.40610 0.75150 0.14070 0.01800
C 	C 	0.68330 0.40930 0.22533 -0.01200
H 	H 	0.63890 0.45200 0.18900 0.03900
C 	C 	0.75680 0.44130 0.29501 0.01300
H 	H 	0.76720 0.50750 0.30960 0.02900
S 	S 	0.20146 0.05461 0.24992 0.07500
S 	S 	0.72793 0.75203 0.20520 0.05500
Mg	Mg	0.09225 0.84378 0.47430 1.47300
Mg	Mg	0.97070 0.60289 0.44875 1.46500
O 	O 	0.11360 0.96066 0.39852 -0.52200
O 	O 	0.57938 0.79501 0.04372 -0.60700
O 	O 	0.87740 0.65887 0.34505 -0.50300
O 	O 	0.56693 0.95451 0.06118 -0.67600
O 	O 	0.35631 0.10059 0.10671 -0.52300
O 	O 	0.30100 0.26129 0.10139 -0.52400
O 	O 	0.01550 0.09248 0.44457 -0.56700
C 	C 	0.30080 0.17740 0.13186 0.43500
C 	C 	0.22810 0.16760 0.20657 -0.11700
C 	C 	0.12910 0.10942 0.32861 -0.15700
C 	C 	0.08180 0.04935 0.39635 0.50700
O 	O 	0.92300 0.79680 0.41147 -0.55400
C 	C 	0.87700 0.75110 0.35103 0.40800
C 	C 	0.81580 0.80970 0.28303 -0.10800
C 	C 	0.68860 0.86394 0.16091 -0.16900
C 	C 	0.60860 0.87013 0.08480 0.47200
C 	C 	0.18390 0.24270 0.25145 -0.01700
H 	H 	0.18980 0.30920 0.23740 0.04600
C 	C 	0.12800 0.20930 0.32167 0.02100
H 	H 	0.09390 0.25150 0.35930 0.01800
C 	C 	0.81670 0.90930 0.27467 -0.02100
H 	H 	0.86110 0.95200 0.31100 0.04400
C 	C 	0.74320 0.94130 0.20499 0.03100
H 	H 	0.73280 0.00750 0.19040 0.01700
S 	S 	0.70146 0.44539 0.74992 0.07800
S 	S 	0.22793 0.74797 0.70520 0.05200
Mg	Mg	0.59225 0.65622 0.97430 1.47300
Mg	Mg	0.47070 0.89711 0.94875 1.46400
O 	O 	0.61360 0.53934 0.89852 -0.52200
O 	O 	0.07938 0.70499 0.54372 -0.60900
O 	O 	0.37740 0.84113 0.84505 -0.50500
O 	O 	0.06693 0.54549 0.56118 -0.68000
O 	O 	0.85631 0.39941 0.60671 -0.52000
O 	O 	0.80100 0.23871 0.60139 -0.52300
O 	O 	0.51550 0.40752 0.94457 -0.56600
C 	C 	0.80080 0.32260 0.63186 0.43500
C 	C 	0.72810 0.33240 0.70657 -0.11700
C 	C 	0.62910 0.39058 0.82861 -0.15700
C 	C 	0.58180 0.45065 0.89635 0.50700
O 	O 	0.42300 0.70320 0.91147 -0.55600
C 	C 	0.37700 0.74890 0.85103 0.40900
C 	C 	0.31580 0.69030 0.78303 -0.11200
C 	C 	0.18860 0.63606 0.66091 -0.16400
C 	C 	0.10860 0.62987 0.58480 0.47000
C 	C 	0.68390 0.25730 0.75145 -0.01700
H 	H 	0.68980 0.19080 0.73740 0.04700
C 	C 	0.62800 0.29070 0.82167 0.02200
H 	H 	0.59390 0.24850 0.85930 0.01800
C 	C 	0.31670 0.59070 0.77467 -0.01200
H 	H 	0.36110 0.54800 0.81100 0.03900
C 	C 	0.24320 0.55870 0.70499 0.01300
H 	H 	0.23280 0.49250 0.69040 0.02900
S 	S 	0.79854 0.94539 0.75008 0.07500
S 	S 	0.27207 0.24797 0.79480 0.05500
Mg	Mg	0.90775 0.15622 0.52570 1.47300
Mg	Mg	0.02930 0.39711 0.55125 1.46500
O 	O 	0.88640 0.03934 0.60148 -0.52200
O 	O 	0.42062 0.20499 0.95628 -0.60700
O 	O 	0.12260 0.34113 0.65495 -0.50300
O 	O 	0.43307 0.04549 0.93882 -0.67600
O 	O 	0.64369 0.89941 0.89329 -0.52300
O 	O 	0.69900 0.73871 0.89861 -0.52400
O 	O 	0.98450 0.90752 0.55543 -0.56700
C 	C 	0.69920 0.82260 0.86814 0.43500
C 	C 	0.77190 0.83240 0.79343 -0.11700
C 	C 	0.87090 0.89058 0.67139 -0.15700
C 	C 	0.91820 0.95065 0.60365 0.50700
O 	O 	0.07700 0.20320 0.58853 -0.55400
C 	C 	0.12300 0.24890 0.64897 0.40800
C 	C 	0.18420 0.19030 0.71697 -0.10800
C 	C 	0.31140 0.13606 0.83909 -0.16900
C 	C 	0.39140 0.12987 0.91520 0.47200
C 	C 	0.81610 0.75730 0.74855 -0.01700
H 	H 	0.81020 0.69080 0.76260 0.04600
C 	C 	0.87200 0.79070 0.67833 0.02100
H 	H 	0.90610 0.74850 0.64070 0.01800
C 	C 	0.18330 0.09070 0.72533 -0.02100
H 	H 	0.13890 0.04800 0.68900 0.04400
C 	C 	0.25680 0.05870 0.79501 0.03100
H 	H 	0.26720 0.99250 0.80960 0.01700
