data_crystal

_cell_length_a 28.85100
_cell_length_b 28.52690
_cell_length_c 27.36470
_cell_angle_alpha 113.47600
_cell_angle_beta  67.31300
_cell_angle_gamma 93.45400

_symmetry_space_group_name_	'P 1'
_symmetry_space_group_name_H-M	'P 1'

loop_
_symmetry_equiv_pos_as_xyz
  x,y,z

loop_
_atom_site_label
_atom_site_type_symbol
_atom_site_fract_x
_atom_site_fract_y
_atom_site_fract_z
_atom_site_charge
C 	C 	0.08048 0.25148 0.52901 0.02300
Mn	Mn	0.03787 0.14684 0.49380 1.30300
O 	O 	0.06002 0.18934 0.16497 -0.40600
O 	O 	0.12501 0.13791 0.54819 -0.39800
O 	O 	0.52853 0.16868 0.57532 -0.48900
Mn	Mn	0.05776 0.12672 0.09941 1.37500
O 	O 	0.48040 0.23481 0.63819 -0.14200
Mn	Mn	0.08023 0.08506 0.18891 1.31600
O 	O 	0.09187 0.15760 0.21436 -0.45400
O 	O 	0.50939 0.10761 0.22372 -0.47200
O 	O 	0.48904 0.11943 0.15437 -0.40500
C 	C 	0.14280 0.12911 0.49270 0.33800
H 	H 	0.33935 0.66267 0.56515 0.03300
O 	O 	0.05745 0.56044 0.53781 -0.42500
O 	O 	0.02220 0.57608 0.48310 -0.46800
H 	H 	0.41631 0.64992 0.58813 0.02700
O 	O 	0.09009 0.58151 0.11449 -0.50400
H 	H 	0.47316 0.16358 0.43140 -0.01700
O 	O 	0.15445 0.53715 0.04345 -0.12000
H 	H 	0.53823 0.22297 0.43052 -0.01000
H 	H 	0.11532 0.32205 0.52620 0.03500
H 	H 	0.09129 0.24466 0.55951 0.03100
C 	C 	0.07434 0.19600 0.20802 0.33000
C 	C 	0.23864 0.05860 0.12237 0.01600
C 	C 	0.19415 0.09051 0.15326 0.01700
C 	C 	0.17792 0.01306 0.12299 0.09400
H 	H 	0.27547 0.07189 0.11607 0.03000
C 	C 	0.08081 0.46028 0.16855 -0.00400
H 	H 	0.15933 0.47991 0.11123 0.00300
C 	C 	0.53276 0.49493 0.11965 -0.01900
H 	H 	0.19071 0.13178 0.16981 0.02300
C 	C 	0.53431 0.42820 0.09166 -0.00800
H 	H 	0.10078 0.46105 0.19502 0.01500
H 	H 	0.51484 0.40484 0.06527 0.05200
H 	H 	0.51873 0.52061 0.10749 0.05000
C 	C 	0.47642 0.11819 0.20651 0.34100
C 	C 	0.03787 0.54418 0.49892 0.36000
N 	N 	0.39482 0.17270 0.49089 -0.11600
N 	N 	0.46192 0.16488 0.51292 -0.24300
N 	N 	0.05519 0.21966 0.49888 -0.24900
N 	N 	0.07610 0.28504 0.47024 -0.11700
N 	N 	0.48670 0.18948 0.11038 0.02100
C 	C 	0.37798 0.66696 0.54131 0.00600
C 	C 	0.41870 0.66114 0.55400 0.02600
C 	C 	0.44621 0.16913 0.47407 0.07100
N 	N 	0.15557 0.06142 0.15656 -0.25300
N 	N 	0.56132 0.51067 0.16390 -0.22800
N 	N 	0.22789 0.00914 0.10717 -0.12100
N 	N 	0.56199 0.40953 0.12532 -0.10400
N 	N 	0.13485 0.57637 0.08443 0.02200
O 	O 	0.11216 0.12584 0.46567 -0.44500
C 	C 	0.05350 0.24089 0.46325 0.07000
C 	C 	0.09309 0.29181 0.51171 0.00600
C 	C 	0.43582 0.39821 0.36144 -0.07700
C 	C 	0.44458 0.43377 0.40648 0.11600
C 	C 	0.41556 0.48041 0.44674 -0.05300
C 	C 	0.44198 0.50650 0.47975 -0.07500
C 	C 	0.48564 0.47479 0.45854 0.13800
N 	N 	0.48672 0.43000 0.41496 -0.12800
C 	C 	0.52853 0.48807 0.47643 -0.16900
C 	C 	0.55698 0.44836 0.47138 0.15400
C 	C 	0.10402 0.44938 0.47358 -0.09200
C 	C 	0.11885 0.40045 0.46480 -0.03400
C 	C 	0.08014 0.37114 0.45779 0.06800
N 	N 	0.54323 0.39988 0.45994 -0.12600
C 	C 	0.08506 0.31388 0.43443 -0.00100
C 	C 	0.09872 0.28814 0.37732 0.07200
C 	C 	0.12898 0.24217 0.34419 -0.05000
C 	C 	0.12911 0.22705 0.29008 -0.07800
C 	C 	0.59512 0.26192 0.29343 0.12700
N 	N 	0.07884 0.30098 0.34665 -0.12200
C 	C 	0.56542 0.24945 0.25582 -0.15000
C 	C 	0.52132 0.28012 0.27649 0.13800
C 	C 	0.47905 0.26379 0.26461 -0.07400
C 	C 	0.44054 0.30264 0.30154 -0.05500
C 	C 	0.46108 0.34364 0.33131 0.09300
N 	N 	0.51028 0.32965 0.31692 -0.12300
C 	C 	0.40982 0.41392 0.32978 0.10000
O 	O 	0.39231 0.46647 0.35566 -0.27400
C 	C 	0.44832 0.39990 0.26701 0.00600
C 	C 	0.42879 0.40665 0.22662 -0.09100
C 	C 	0.97448 0.41143 0.17649 -0.00400
C 	C 	0.49717 0.46532 0.19121 -0.01000
C 	C 	0.49362 0.47414 0.25567 -0.03300
N 	N 	0.99655 0.42382 0.26204 -0.08400
C 	C 	0.03588 0.38491 0.20898 -0.04900
C 	C 	0.02657 0.38031 0.15475 0.01100
H 	H 	0.37833 0.49392 0.45390 0.06400
H 	H 	0.43043 0.54416 0.51520 0.05800
H 	H 	0.62731 0.48011 0.47465 0.08400
H 	H 	0.15525 0.38697 0.46001 0.04500
H 	H 	0.14925 0.22211 0.35747 0.04200
H 	H 	0.14980 0.19231 0.25435 0.05700
H 	H 	0.47446 0.22653 0.23588 0.07300
H 	H 	0.40263 0.30236 0.30268 0.04900
H 	H 	0.37744 0.39058 0.32891 0.00800
H 	H 	0.35913 0.46958 0.35347 0.14700
H 	H 	0.45522 0.35746 0.24811 0.03900
H 	H 	0.40222 0.44206 0.24943 0.05700
H 	H 	0.40879 0.37322 0.20989 0.05000
H 	H 	0.95915 0.40152 0.14249 0.03400
H 	H 	0.96707 0.49479 0.20278 0.04000
H 	H 	0.59518 0.45512 0.09372 0.06300
H 	H 	0.45741 0.49784 0.28865 0.05600
H 	H 	0.02130 0.49883 0.26956 0.02000
H 	H 	0.03494 0.34651 0.21066 0.05100
H 	H 	0.07426 0.39313 0.20722 0.04800
H 	H 	0.02817 0.33996 0.12491 0.03700
C 	C 	0.31087 0.48772 0.26755 -0.07300
C 	C 	0.26998 0.51031 0.31955 0.10500
C 	C 	0.22386 0.49060 0.33699 -0.05700
C 	C 	0.19183 0.52809 0.38810 -0.07200
C 	C 	0.21880 0.56941 0.40123 0.12900
N 	N 	0.26641 0.55872 0.35933 -0.12400
C 	C 	0.20004 0.61657 0.45735 -0.14400
C 	C 	0.23536 0.64249 0.47699 0.14400
C 	C 	0.22628 0.18313 0.53007 -0.08200
C 	C 	0.27317 0.19634 0.53079 -0.04300
C 	C 	0.30941 0.16375 0.47824 0.07100
N 	N 	0.28621 0.13142 0.44550 -0.11900
C 	C 	0.36521 0.17004 0.45650 0.00300
C 	C 	0.38752 0.17396 0.40466 0.07000
C 	C 	0.42849 0.20057 0.38961 -0.04400
C 	C 	0.44440 0.18745 0.33150 -0.07900
C 	C 	0.41188 0.15455 0.31243 0.12900
N 	N 	0.37603 0.14741 0.35802 -0.11700
C 	C 	0.42278 0.62185 0.24913 -0.15300
C 	C 	0.39612 0.58128 0.23532 0.14300
C 	C 	0.41030 0.54268 0.18053 -0.08700
C 	C 	0.38652 0.50179 0.18737 -0.04800
C 	C 	0.35280 0.51825 0.24510 0.08500
N 	N 	0.35899 0.56744 0.27465 -0.12400
C 	C 	0.31110 0.43398 0.22186 0.09700
O 	O 	0.28394 0.40076 0.24633 -0.28000
C 	C 	0.29850 0.43399 0.17080 -0.00200
C 	C 	0.24932 0.41213 0.16493 -0.08800
C 	C 	0.22010 0.95159 0.15883 -0.00200
C 	C 	0.20871 0.50096 0.21482 -0.07700
C 	C 	0.25898 0.52390 0.21023 -0.01500
N 	N 	0.30279 0.98444 0.16545 -0.09800
C 	C 	0.30614 0.97498 0.10690 -0.04300
C 	C 	0.25347 0.96434 0.10475 0.01700
H 	H 	0.21181 0.45476 0.31480 0.06300
H 	H 	0.15310 0.52506 0.41296 0.06000
H 	H 	0.19010 0.70191 0.56440 0.06700
H 	H 	0.27989 0.22789 0.56496 0.04200
H 	H 	0.44579 0.22657 0.41722 0.04400
H 	H 	0.47909 0.19715 0.30581 0.06000
H 	H 	0.43720 0.54244 0.14005 0.06500
H 	H 	0.39278 0.46452 0.15210 0.04500
H 	H 	0.35097 0.41707 0.20126 0.00600
H 	H 	0.29612 0.36503 0.21654 0.13900
H 	H 	0.32921 0.40558 0.13185 0.03100
H 	H 	0.22484 0.40406 0.20284 0.05600
H 	H 	0.25849 0.37526 0.12590 0.04800
H 	H 	0.18485 0.93620 0.15530 0.02400
H 	H 	0.17985 0.02944 0.22201 0.03200
H 	H 	0.19298 0.49194 0.25363 0.04300
H 	H 	0.26026 0.54278 0.25288 0.04300
H 	H 	0.26088 0.05788 0.20021 0.03700
H 	H 	0.33415 0.94135 0.07305 0.04700
H 	H 	0.32265 0.00680 0.09508 0.05000
H 	H 	0.25772 0.93065 0.06402 0.03600
C 	C 	0.08048 0.25148 0.02901 0.04900
Mn	Mn	0.03787 0.14684 0.99380 1.29000
O 	O 	0.06002 0.18934 0.66497 -0.40700
O 	O 	0.12501 0.13791 0.04819 -0.36800
O 	O 	0.52853 0.16868 0.07532 -0.47800
Mn	Mn	0.05776 0.12672 0.59941 1.37400
O 	O 	0.48040 0.23481 0.13819 -0.14000
Mn	Mn	0.08023 0.08506 0.68891 1.31500
O 	O 	0.09187 0.15760 0.71436 -0.45500
O 	O 	0.50939 0.10761 0.72372 -0.47300
O 	O 	0.48904 0.11943 0.65437 -0.40700
C 	C 	0.14280 0.12911 0.99270 0.29000
H 	H 	0.33935 0.66267 0.06515 0.02900
O 	O 	0.05745 0.56044 0.03781 -0.39100
O 	O 	0.02220 0.57608 0.98311 -0.47200
H 	H 	0.41631 0.64992 0.08813 0.03200
O 	O 	0.09008 0.58151 0.61449 -0.50500
H 	H 	0.47316 0.16358 0.93140 -0.01100
O 	O 	0.15444 0.53715 0.54345 -0.13600
H 	H 	0.53823 0.22297 0.93052 -0.01100
H 	H 	0.11532 0.32204 0.02620 0.03700
H 	H 	0.09129 0.24465 0.05951 0.03000
C 	C 	0.07434 0.19600 0.70802 0.33000
C 	C 	0.23863 0.05860 0.62237 0.01300
C 	C 	0.19415 0.09051 0.65326 0.01600
C 	C 	0.17792 0.01306 0.62299 0.09200
H 	H 	0.27547 0.07189 0.61607 0.02700
C 	C 	0.08081 0.46028 0.66855 -0.00400
H 	H 	0.15933 0.47991 0.61123 0.00100
C 	C 	0.53276 0.49493 0.61965 -0.02200
H 	H 	0.19071 0.13177 0.66981 0.02200
C 	C 	0.53430 0.42820 0.59166 -0.01400
H 	H 	0.10078 0.46105 0.69502 0.01500
H 	H 	0.51483 0.40484 0.56527 0.04300
H 	H 	0.51873 0.52061 0.60750 0.04600
C 	C 	0.47642 0.11819 0.70651 0.34100
C 	C 	0.03788 0.54418 0.99892 0.32300
N 	N 	0.39482 0.17269 0.99089 -0.13400
N 	N 	0.46192 0.16488 0.01292 -0.21500
N 	N 	0.05519 0.21966 0.99888 -0.27000
N 	N 	0.07610 0.28504 0.97024 -0.13500
N 	N 	0.48670 0.18948 0.61038 0.02100
C 	C 	0.37798 0.66696 0.04131 0.04400
C 	C 	0.41870 0.66114 0.05400 0.02000
C 	C 	0.44621 0.16913 0.97407 0.03700
N 	N 	0.15557 0.06142 0.65656 -0.25300
N 	N 	0.56131 0.51067 0.66390 -0.22700
N 	N 	0.22788 0.00914 0.60716 -0.12300
N 	N 	0.56199 0.40953 0.62532 -0.10500
N 	N 	0.13484 0.57637 0.58443 0.02300
O 	O 	0.11216 0.12584 0.96567 -0.44400
C 	C 	0.05350 0.24089 0.96325 0.06200
C 	C 	0.09309 0.29181 0.01170 0.03300
C 	C 	0.43582 0.39821 0.86144 -0.07600
C 	C 	0.44458 0.43376 0.90648 0.10600
C 	C 	0.41556 0.48041 0.94674 -0.03400
C 	C 	0.44198 0.50650 0.97975 -0.13300
C 	C 	0.48564 0.47479 0.95854 0.15000
N 	N 	0.48672 0.42999 0.91496 -0.13000
C 	C 	0.52853 0.48807 0.97643 -0.17200
C 	C 	0.55698 0.44836 0.97138 0.14700
C 	C 	0.10402 0.44938 0.97358 -0.09700
C 	C 	0.11886 0.40045 0.96480 -0.03900
C 	C 	0.08014 0.37114 0.95779 0.05900
N 	N 	0.54323 0.39988 0.95994 -0.12900
C 	C 	0.08506 0.31388 0.93443 -0.00500
C 	C 	0.09872 0.28814 0.87732 0.07200
C 	C 	0.12898 0.24217 0.84419 -0.05100
C 	C 	0.12912 0.22705 0.79007 -0.07800
C 	C 	0.59512 0.26192 0.79343 0.12700
N 	N 	0.07884 0.30098 0.84664 -0.12200
C 	C 	0.56542 0.24945 0.75582 -0.15000
C 	C 	0.52133 0.28012 0.77649 0.13800
C 	C 	0.47905 0.26379 0.76461 -0.07400
C 	C 	0.44054 0.30264 0.80154 -0.05600
C 	C 	0.46108 0.34364 0.83130 0.09000
N 	N 	0.51028 0.32965 0.81692 -0.12300
C 	C 	0.40982 0.41392 0.82978 0.10000
O 	O 	0.39231 0.46647 0.85566 -0.27500
C 	C 	0.44832 0.39990 0.76701 0.00700
C 	C 	0.42879 0.40666 0.72663 -0.09100
C 	C 	0.97448 0.41143 0.67649 -0.00300
C 	C 	0.49717 0.46532 0.69121 -0.01000
C 	C 	0.49362 0.47414 0.75567 -0.03300
N 	N 	0.99654 0.42382 0.76204 -0.08400
C 	C 	0.03587 0.38491 0.70898 -0.04900
C 	C 	0.02657 0.38032 0.65475 0.01000
H 	H 	0.37833 0.49392 0.95390 0.04900
H 	H 	0.43043 0.54415 0.01520 0.09600
H 	H 	0.62732 0.48010 0.97465 0.07500
H 	H 	0.15525 0.38697 0.96001 0.03700
H 	H 	0.14926 0.22210 0.85747 0.03900
H 	H 	0.14980 0.19231 0.75435 0.05600
H 	H 	0.47446 0.22653 0.73588 0.07300
H 	H 	0.40263 0.30236 0.80268 0.04700
H 	H 	0.37744 0.39058 0.82891 0.00600
H 	H 	0.35913 0.46958 0.85348 0.14500
H 	H 	0.45522 0.35746 0.74811 0.03900
H 	H 	0.40222 0.44206 0.74943 0.05700
H 	H 	0.40879 0.37322 0.70990 0.04900
H 	H 	0.95914 0.40152 0.64249 0.03200
H 	H 	0.96707 0.49479 0.70279 0.04000
H 	H 	0.59518 0.45512 0.59372 0.05800
H 	H 	0.45740 0.49784 0.78865 0.05600
H 	H 	0.02130 0.49883 0.76956 0.01900
H 	H 	0.03494 0.34651 0.71065 0.05000
H 	H 	0.07425 0.39313 0.70722 0.04700
H 	H 	0.02817 0.33996 0.62491 0.03600
C 	C 	0.31087 0.48772 0.76755 -0.07400
C 	C 	0.26998 0.51031 0.81955 0.10400
C 	C 	0.22386 0.49060 0.83699 -0.05800
C 	C 	0.19183 0.52809 0.88810 -0.07000
C 	C 	0.21880 0.56941 0.90123 0.12000
N 	N 	0.26641 0.55872 0.85933 -0.12400
C 	C 	0.20004 0.61657 0.95735 -0.12600
C 	C 	0.23537 0.64249 0.97699 0.09600
C 	C 	0.22628 0.18313 0.03007 -0.04300
C 	C 	0.27317 0.19634 0.03079 -0.00900
C 	C 	0.30941 0.16375 0.97824 0.02900
N 	N 	0.28621 0.13142 0.94550 -0.10900
C 	C 	0.36521 0.17004 0.95650 0.00600
C 	C 	0.38752 0.17396 0.90466 0.06500
C 	C 	0.42849 0.20057 0.88961 -0.04400
C 	C 	0.44440 0.18745 0.83150 -0.08000
C 	C 	0.41188 0.15455 0.81243 0.12800
N 	N 	0.37603 0.14741 0.85802 -0.11800
C 	C 	0.42278 0.62185 0.74913 -0.15300
C 	C 	0.39612 0.58128 0.73532 0.14200
C 	C 	0.41030 0.54268 0.68053 -0.08800
C 	C 	0.38652 0.50179 0.68737 -0.04800
C 	C 	0.35280 0.51826 0.74509 0.08500
N 	N 	0.35899 0.56744 0.77465 -0.12400
C 	C 	0.31110 0.43398 0.72186 0.09700
O 	O 	0.28394 0.40076 0.74633 -0.28100
C 	C 	0.29849 0.43399 0.67080 -0.00200
C 	C 	0.24932 0.41214 0.66494 -0.08700
C 	C 	0.22010 0.95159 0.65883 -0.00200
C 	C 	0.20871 0.50096 0.71482 -0.07700
C 	C 	0.25898 0.52390 0.71023 -0.01500
N 	N 	0.30279 0.98444 0.66545 -0.09800
C 	C 	0.30614 0.97497 0.60690 -0.04100
C 	C 	0.25346 0.96434 0.60475 0.01600
H 	H 	0.21181 0.45476 0.81479 0.06300
H 	H 	0.15310 0.52506 0.91296 0.05700
H 	H 	0.19010 0.70191 0.06440 0.06200
H 	H 	0.27989 0.22789 0.06496 0.03900
H 	H 	0.44579 0.22657 0.91722 0.04000
H 	H 	0.47909 0.19715 0.80581 0.05900
H 	H 	0.43720 0.54244 0.64005 0.06200
H 	H 	0.39278 0.46452 0.65210 0.04200
H 	H 	0.35097 0.41707 0.70126 0.00500
H 	H 	0.29612 0.36503 0.71654 0.13800
H 	H 	0.32920 0.40558 0.63185 0.02800
H 	H 	0.22483 0.40407 0.70285 0.05600
H 	H 	0.25849 0.37526 0.62591 0.04400
H 	H 	0.18485 0.93620 0.65531 0.02300
H 	H 	0.17985 0.02944 0.72201 0.03200
H 	H 	0.19298 0.49194 0.75363 0.04300
H 	H 	0.26026 0.54278 0.75288 0.04300
H 	H 	0.26089 0.05788 0.70020 0.03700
H 	H 	0.33415 0.94135 0.57305 0.04000
H 	H 	0.32265 0.00679 0.59508 0.04500
H 	H 	0.25772 0.93065 0.56402 0.03000
C 	C 	0.08048 0.75148 0.52901 0.02200
Mn	Mn	0.03787 0.64684 0.49380 1.30200
O 	O 	0.06002 0.68934 0.16497 -0.40700
O 	O 	0.12501 0.63791 0.54819 -0.39900
O 	O 	0.52853 0.66868 0.57532 -0.49000
Mn	Mn	0.05776 0.62672 0.09941 1.37400
O 	O 	0.48040 0.73481 0.63819 -0.14300
Mn	Mn	0.08023 0.58506 0.18891 1.31500
O 	O 	0.09187 0.65760 0.21436 -0.45500
O 	O 	0.50939 0.60761 0.22372 -0.47300
O 	O 	0.48904 0.61943 0.15437 -0.40600
C 	C 	0.14280 0.62911 0.49270 0.33700
H 	H 	0.33935 0.16267 0.56515 0.03200
O 	O 	0.05745 0.06044 0.53781 -0.42500
O 	O 	0.02220 0.07608 0.48310 -0.46800
H 	H 	0.41631 0.14992 0.58813 0.02700
O 	O 	0.09009 0.08151 0.11449 -0.50400
H 	H 	0.47316 0.66358 0.43140 -0.01700
O 	O 	0.15445 0.03715 0.04345 -0.12100
H 	H 	0.53823 0.72297 0.43052 -0.01000
H 	H 	0.11532 0.82205 0.52620 0.03500
H 	H 	0.09129 0.74466 0.55951 0.03100
C 	C 	0.07434 0.69600 0.20802 0.33000
C 	C 	0.23864 0.55860 0.12237 0.01600
C 	C 	0.19415 0.59051 0.15326 0.01700
C 	C 	0.17792 0.51306 0.12299 0.09400
H 	H 	0.27547 0.57189 0.11607 0.03000
C 	C 	0.08081 0.96028 0.16855 -0.00300
H 	H 	0.15933 0.97991 0.11123 0.00300
C 	C 	0.53276 0.99493 0.11965 -0.02000
H 	H 	0.19071 0.63178 0.16981 0.02300
C 	C 	0.53431 0.92820 0.09166 -0.00800
H 	H 	0.10078 0.96105 0.19502 0.01500
H 	H 	0.51484 0.90484 0.06527 0.05100
H 	H 	0.51873 0.02061 0.10749 0.05000
C 	C 	0.47642 0.61819 0.20651 0.34100
C 	C 	0.03787 0.04418 0.49892 0.36000
N 	N 	0.39482 0.67270 0.49089 -0.11600
N 	N 	0.46192 0.66488 0.51292 -0.24300
N 	N 	0.05519 0.71966 0.49888 -0.24900
N 	N 	0.07610 0.78504 0.47024 -0.11700
N 	N 	0.48670 0.68948 0.11037 0.02100
C 	C 	0.37798 0.16696 0.54131 0.00600
C 	C 	0.41870 0.16114 0.55400 0.02600
C 	C 	0.44621 0.66913 0.47407 0.07100
N 	N 	0.15557 0.56142 0.15656 -0.25300
N 	N 	0.56132 0.01067 0.16390 -0.22700
N 	N 	0.22789 0.50915 0.10717 -0.12100
N 	N 	0.56199 0.90953 0.12532 -0.10400
N 	N 	0.13485 0.07637 0.08443 0.02200
O 	O 	0.11216 0.62584 0.46567 -0.44500
C 	C 	0.05350 0.74089 0.46325 0.07000
C 	C 	0.09309 0.79181 0.51171 0.00600
C 	C 	0.43582 0.89821 0.36144 -0.07700
C 	C 	0.44458 0.93377 0.40648 0.11600
C 	C 	0.41556 0.98041 0.44674 -0.05300
C 	C 	0.44198 0.00650 0.47975 -0.07500
C 	C 	0.48564 0.97479 0.45854 0.13800
N 	N 	0.48672 0.92999 0.41496 -0.12800
C 	C 	0.52853 0.98807 0.47643 -0.16900
C 	C 	0.55697 0.94836 0.47138 0.15400
C 	C 	0.10402 0.94938 0.47358 -0.09100
C 	C 	0.11885 0.90045 0.46480 -0.03400
C 	C 	0.08014 0.87114 0.45779 0.06800
N 	N 	0.54323 0.89988 0.45994 -0.12600
C 	C 	0.08506 0.81388 0.43443 -0.00100
C 	C 	0.09872 0.78814 0.37732 0.07200
C 	C 	0.12898 0.74217 0.34419 -0.05000
C 	C 	0.12912 0.72705 0.29008 -0.07800
C 	C 	0.59512 0.76192 0.29343 0.12700
N 	N 	0.07884 0.80098 0.34665 -0.12200
C 	C 	0.56542 0.74945 0.25582 -0.15000
C 	C 	0.52132 0.78012 0.27649 0.13800
C 	C 	0.47905 0.76379 0.26461 -0.07400
C 	C 	0.44054 0.80264 0.30154 -0.05500
C 	C 	0.46108 0.84364 0.33131 0.09300
N 	N 	0.51028 0.82965 0.31692 -0.12300
C 	C 	0.40982 0.91392 0.32978 0.10000
O 	O 	0.39231 0.96647 0.35566 -0.27400
C 	C 	0.44832 0.89990 0.26701 0.00600
C 	C 	0.42879 0.90665 0.22662 -0.09100
C 	C 	0.97448 0.91143 0.17649 -0.00400
C 	C 	0.49717 0.96532 0.19121 -0.01000
C 	C 	0.49362 0.97414 0.25567 -0.03300
N 	N 	0.99655 0.92382 0.26204 -0.08400
C 	C 	0.03588 0.88491 0.20898 -0.04800
C 	C 	0.02657 0.88031 0.15475 0.01100
H 	H 	0.37833 0.99392 0.45390 0.06400
H 	H 	0.43043 0.04416 0.51520 0.05800
H 	H 	0.62731 0.98011 0.47465 0.08400
H 	H 	0.15525 0.88697 0.46001 0.04500
H 	H 	0.14926 0.72211 0.35747 0.04200
H 	H 	0.14980 0.69232 0.25435 0.05700
H 	H 	0.47446 0.72653 0.23588 0.07300
H 	H 	0.40263 0.80236 0.30268 0.04900
H 	H 	0.37744 0.89058 0.32891 0.00800
H 	H 	0.35913 0.96958 0.35347 0.14700
H 	H 	0.45522 0.85746 0.24811 0.03900
H 	H 	0.40222 0.94206 0.24943 0.05700
H 	H 	0.40879 0.87322 0.20989 0.05000
H 	H 	0.95915 0.90152 0.14249 0.03400
H 	H 	0.96707 0.99479 0.20278 0.04000
H 	H 	0.59518 0.95512 0.09372 0.06200
H 	H 	0.45741 0.99784 0.28865 0.05600
H 	H 	0.02130 0.99883 0.26956 0.02000
H 	H 	0.03494 0.84651 0.21066 0.05100
H 	H 	0.07426 0.89313 0.20722 0.04800
H 	H 	0.02817 0.83996 0.12491 0.03700
C 	C 	0.31087 0.98772 0.26755 -0.07400
C 	C 	0.26998 0.01031 0.31955 0.10500
C 	C 	0.22386 0.99060 0.33699 -0.05700
C 	C 	0.19183 0.02809 0.38810 -0.07200
C 	C 	0.21880 0.06941 0.40123 0.12900
N 	N 	0.26641 0.05872 0.35933 -0.12500
C 	C 	0.20004 0.11657 0.45735 -0.14400
C 	C 	0.23536 0.14249 0.47699 0.14400
C 	C 	0.22628 0.68313 0.53007 -0.08200
C 	C 	0.27317 0.69634 0.53079 -0.04300
C 	C 	0.30941 0.66375 0.47824 0.07100
N 	N 	0.28621 0.63142 0.44550 -0.11900
C 	C 	0.36521 0.67004 0.45650 0.00300
C 	C 	0.38752 0.67396 0.40466 0.07000
C 	C 	0.42849 0.70057 0.38961 -0.04400
C 	C 	0.44440 0.68745 0.33150 -0.07900
C 	C 	0.41188 0.65455 0.31243 0.12900
N 	N 	0.37603 0.64741 0.35802 -0.11700
C 	C 	0.42278 0.12185 0.24913 -0.15300
C 	C 	0.39612 0.08128 0.23532 0.14300
C 	C 	0.41030 0.04268 0.18053 -0.08700
C 	C 	0.38652 0.00179 0.18737 -0.04800
C 	C 	0.35280 0.01825 0.24510 0.08500
N 	N 	0.35899 0.06744 0.27465 -0.12400
C 	C 	0.31110 0.93398 0.22186 0.09700
O 	O 	0.28394 0.90076 0.24633 -0.28100
C 	C 	0.29850 0.93399 0.17080 -0.00200
C 	C 	0.24932 0.91213 0.16493 -0.08700
C 	C 	0.22010 0.45159 0.15883 -0.00200
C 	C 	0.20871 0.00096 0.21482 -0.07700
C 	C 	0.25898 0.02390 0.21023 -0.01500
N 	N 	0.30279 0.48444 0.16545 -0.09800
C 	C 	0.30614 0.47498 0.10690 -0.04200
C 	C 	0.25347 0.46434 0.10475 0.01700
H 	H 	0.21181 0.95476 0.31480 0.06300
H 	H 	0.15310 0.02506 0.41296 0.06000
H 	H 	0.19010 0.20191 0.56440 0.06700
H 	H 	0.27989 0.72789 0.56496 0.04200
H 	H 	0.44579 0.72657 0.41722 0.04400
H 	H 	0.47910 0.69715 0.30581 0.06000
H 	H 	0.43720 0.04244 0.14005 0.06500
H 	H 	0.39278 0.96452 0.15211 0.04500
H 	H 	0.35097 0.91707 0.20126 0.00600
H 	H 	0.29612 0.86503 0.21654 0.13900
H 	H 	0.32921 0.90558 0.13185 0.03100
H 	H 	0.22484 0.90406 0.20284 0.05600
H 	H 	0.25849 0.87526 0.12590 0.04800
H 	H 	0.18485 0.43620 0.15530 0.02400
H 	H 	0.17985 0.52944 0.22201 0.03200
H 	H 	0.19298 0.99194 0.25363 0.04300
H 	H 	0.26026 0.04278 0.25288 0.04300
H 	H 	0.26088 0.55788 0.20021 0.03700
H 	H 	0.33415 0.44135 0.07305 0.04700
H 	H 	0.32265 0.50680 0.09508 0.05000
H 	H 	0.25772 0.43065 0.06402 0.03600
C 	C 	0.08048 0.75148 0.02901 0.04800
Mn	Mn	0.03787 0.64684 0.99380 1.29000
O 	O 	0.06002 0.68934 0.66497 -0.40700
O 	O 	0.12501 0.63791 0.04819 -0.36900
O 	O 	0.52853 0.66868 0.07532 -0.47800
Mn	Mn	0.05776 0.62672 0.59941 1.37400
O 	O 	0.48040 0.73481 0.13819 -0.14000
Mn	Mn	0.08023 0.58506 0.68891 1.31500
O 	O 	0.09187 0.65760 0.71436 -0.45500
O 	O 	0.50939 0.60761 0.72372 -0.47300
O 	O 	0.48904 0.61943 0.65437 -0.40700
C 	C 	0.14280 0.62911 0.99270 0.29100
H 	H 	0.33935 0.16267 0.06515 0.02900
O 	O 	0.05745 0.06044 0.03781 -0.39100
O 	O 	0.02220 0.07608 0.98311 -0.47200
H 	H 	0.41631 0.14992 0.08813 0.03200
O 	O 	0.09008 0.08151 0.61449 -0.50500
H 	H 	0.47316 0.66358 0.93140 -0.01100
O 	O 	0.15444 0.03715 0.54345 -0.13600
H 	H 	0.53823 0.72297 0.93052 -0.01100
H 	H 	0.11532 0.82204 0.02620 0.03700
H 	H 	0.09129 0.74465 0.05951 0.03000
C 	C 	0.07434 0.69600 0.70802 0.33000
C 	C 	0.23863 0.55860 0.62237 0.01300
C 	C 	0.19415 0.59051 0.65326 0.01600
C 	C 	0.17792 0.51306 0.62299 0.09300
H 	H 	0.27547 0.57189 0.61607 0.02700
C 	C 	0.08081 0.96028 0.66855 -0.00400
H 	H 	0.15933 0.97991 0.61123 0.00100
C 	C 	0.53276 0.99493 0.61965 -0.02100
H 	H 	0.19071 0.63177 0.66981 0.02200
C 	C 	0.53430 0.92820 0.59166 -0.01400
H 	H 	0.10078 0.96105 0.69502 0.01500
H 	H 	0.51483 0.90484 0.56527 0.04300
H 	H 	0.51873 0.02061 0.60750 0.04600
C 	C 	0.47642 0.61819 0.70651 0.34100
C 	C 	0.03787 0.04418 0.99892 0.32200
N 	N 	0.39482 0.67269 0.99089 -0.13300
N 	N 	0.46192 0.66488 0.01292 -0.21500
N 	N 	0.05519 0.71966 0.99888 -0.27000
N 	N 	0.07610 0.78504 0.97024 -0.13500
N 	N 	0.48670 0.68948 0.61038 0.02100
C 	C 	0.37798 0.16696 0.04131 0.04400
C 	C 	0.41870 0.16114 0.05400 0.02000
C 	C 	0.44621 0.66913 0.97407 0.03700
N 	N 	0.15557 0.56142 0.65656 -0.25300
N 	N 	0.56131 0.01067 0.66390 -0.22700
N 	N 	0.22788 0.50914 0.60716 -0.12300
N 	N 	0.56199 0.90953 0.62532 -0.10500
N 	N 	0.13484 0.07637 0.58443 0.02300
O 	O 	0.11216 0.62584 0.96567 -0.44400
C 	C 	0.05350 0.74089 0.96325 0.06200
C 	C 	0.09309 0.79181 0.01170 0.03300
C 	C 	0.43582 0.89821 0.86144 -0.07600
C 	C 	0.44458 0.93376 0.90648 0.10600
C 	C 	0.41556 0.98041 0.94674 -0.03300
C 	C 	0.44198 0.00650 0.97975 -0.13400
C 	C 	0.48564 0.97479 0.95854 0.15200
N 	N 	0.48672 0.92999 0.91496 -0.13000
C 	C 	0.52853 0.98807 0.97643 -0.17200
C 	C 	0.55698 0.94836 0.97138 0.14700
C 	C 	0.10402 0.94938 0.97358 -0.09700
C 	C 	0.11886 0.90045 0.96480 -0.03900
C 	C 	0.08014 0.87114 0.95779 0.06000
N 	N 	0.54323 0.89988 0.95994 -0.12900
C 	C 	0.08506 0.81388 0.93443 -0.00500
C 	C 	0.09872 0.78814 0.87732 0.07200
C 	C 	0.12898 0.74217 0.84419 -0.05100
C 	C 	0.12912 0.72705 0.79007 -0.07800
C 	C 	0.59512 0.76192 0.79343 0.12700
N 	N 	0.07884 0.80098 0.84664 -0.12200
C 	C 	0.56542 0.74945 0.75582 -0.15000
C 	C 	0.52133 0.78012 0.77649 0.13800
C 	C 	0.47905 0.76379 0.76461 -0.07400
C 	C 	0.44054 0.80264 0.80154 -0.05600
C 	C 	0.46108 0.84364 0.83130 0.09000
N 	N 	0.51028 0.82965 0.81692 -0.12300
C 	C 	0.40982 0.91392 0.82978 0.09900
O 	O 	0.39231 0.96647 0.85566 -0.27500
C 	C 	0.44832 0.89990 0.76701 0.00700
C 	C 	0.42879 0.90666 0.72663 -0.09100
C 	C 	0.97448 0.91143 0.67649 -0.00400
C 	C 	0.49717 0.96532 0.69121 -0.01000
C 	C 	0.49362 0.97414 0.75567 -0.03300
N 	N 	0.99654 0.92382 0.76204 -0.08400
C 	C 	0.03587 0.88491 0.70898 -0.04900
C 	C 	0.02657 0.88031 0.65475 0.01000
H 	H 	0.37833 0.99392 0.95390 0.04900
H 	H 	0.43043 0.04415 0.01520 0.09700
H 	H 	0.62732 0.98010 0.97465 0.07600
H 	H 	0.15525 0.88697 0.96001 0.03700
H 	H 	0.14926 0.72210 0.85747 0.03900
H 	H 	0.14980 0.69231 0.75435 0.05600
H 	H 	0.47446 0.72653 0.73588 0.07300
H 	H 	0.40263 0.80236 0.80268 0.04700
H 	H 	0.37744 0.89058 0.82891 0.00700
H 	H 	0.35913 0.96958 0.85348 0.14600
H 	H 	0.45522 0.85746 0.74811 0.03900
H 	H 	0.40222 0.94206 0.74943 0.05700
H 	H 	0.40879 0.87322 0.70990 0.04900
H 	H 	0.95914 0.90152 0.64249 0.03200
H 	H 	0.96707 0.99479 0.70279 0.04000
H 	H 	0.59518 0.95512 0.59372 0.05800
H 	H 	0.45740 0.99784 0.78865 0.05600
H 	H 	0.02130 0.99883 0.76956 0.02000
H 	H 	0.03494 0.84651 0.71065 0.05000
H 	H 	0.07425 0.89313 0.70722 0.04700
H 	H 	0.02817 0.83996 0.62491 0.03600
C 	C 	0.31087 0.98772 0.76755 -0.07200
C 	C 	0.26998 0.01031 0.81955 0.10300
C 	C 	0.22386 0.99060 0.83699 -0.05600
C 	C 	0.19183 0.02809 0.88810 -0.07200
C 	C 	0.21880 0.06941 0.90123 0.12100
N 	N 	0.26641 0.05872 0.85933 -0.12400
C 	C 	0.20004 0.11657 0.95735 -0.12600
C 	C 	0.23536 0.14249 0.97699 0.09600
C 	C 	0.22629 0.68313 0.03007 -0.04400
C 	C 	0.27317 0.69634 0.03079 -0.00900
C 	C 	0.30941 0.66375 0.97824 0.03000
N 	N 	0.28621 0.63142 0.94550 -0.10900
C 	C 	0.36521 0.67004 0.95650 0.00600
C 	C 	0.38752 0.67396 0.90466 0.06500
C 	C 	0.42849 0.70057 0.88961 -0.04400
C 	C 	0.44440 0.68745 0.83150 -0.08000
C 	C 	0.41188 0.65455 0.81243 0.12800
N 	N 	0.37603 0.64741 0.85802 -0.11700
C 	C 	0.42278 0.12185 0.74913 -0.15300
C 	C 	0.39612 0.08128 0.73532 0.14200
C 	C 	0.41030 0.04268 0.68053 -0.08800
C 	C 	0.38652 0.00179 0.68737 -0.04800
C 	C 	0.35280 0.01826 0.74509 0.08400
N 	N 	0.35899 0.06744 0.77465 -0.12400
C 	C 	0.31110 0.93398 0.72186 0.09600
O 	O 	0.28394 0.90076 0.74633 -0.28100
C 	C 	0.29849 0.93399 0.67080 -0.00200
C 	C 	0.24932 0.91214 0.66494 -0.08800
C 	C 	0.22010 0.45159 0.65883 -0.00200
C 	C 	0.20871 0.00096 0.71482 -0.07800
C 	C 	0.25898 0.02390 0.71023 -0.01500
N 	N 	0.30279 0.48444 0.66545 -0.09800
C 	C 	0.30614 0.47497 0.60690 -0.04100
C 	C 	0.25346 0.46434 0.60475 0.01600
H 	H 	0.21181 0.95476 0.81480 0.06300
H 	H 	0.15310 0.02506 0.91296 0.05700
H 	H 	0.19010 0.20191 0.06440 0.06200
H 	H 	0.27989 0.72789 0.06496 0.03900
H 	H 	0.44579 0.72657 0.91722 0.04000
H 	H 	0.47909 0.69715 0.80581 0.05900
H 	H 	0.43720 0.04244 0.64005 0.06200
H 	H 	0.39278 0.96452 0.65210 0.04300
H 	H 	0.35097 0.91707 0.70126 0.00500
H 	H 	0.29612 0.86503 0.71654 0.13800
H 	H 	0.32920 0.90558 0.63185 0.02800
H 	H 	0.22483 0.90407 0.70285 0.05600
H 	H 	0.25849 0.87526 0.62591 0.04400
H 	H 	0.18485 0.43620 0.65531 0.02300
H 	H 	0.17985 0.52944 0.72201 0.03200
H 	H 	0.19298 0.99194 0.75363 0.04400
H 	H 	0.26026 0.04278 0.75288 0.04300
H 	H 	0.26089 0.55788 0.70020 0.03700
H 	H 	0.33415 0.44135 0.57305 0.04000
H 	H 	0.32265 0.50679 0.59508 0.04500
H 	H 	0.25772 0.43065 0.56402 0.03000
C 	C 	0.58048 0.25148 0.52901 0.02300
Mn	Mn	0.53787 0.14684 0.49380 1.30400
O 	O 	0.56002 0.18934 0.16497 -0.40500
O 	O 	0.62501 0.13791 0.54819 -0.39900
O 	O 	0.02853 0.16868 0.57532 -0.49800
Mn	Mn	0.55776 0.12672 0.09941 1.37600
O 	O 	0.98040 0.23481 0.63819 -0.13900
Mn	Mn	0.58023 0.08506 0.18891 1.31600
O 	O 	0.59187 0.15760 0.21436 -0.45500
O 	O 	0.00939 0.10761 0.22372 -0.48400
O 	O 	0.98904 0.11943 0.15437 -0.40200
C 	C 	0.64280 0.12911 0.49270 0.33700
H 	H 	0.83935 0.66267 0.56515 0.03200
O 	O 	0.55745 0.56044 0.53781 -0.42300
O 	O 	0.52220 0.57608 0.48310 -0.46200
H 	H 	0.91631 0.64992 0.58813 0.02800
O 	O 	0.59009 0.58151 0.11449 -0.50300
H 	H 	0.97316 0.16358 0.43140 -0.01400
O 	O 	0.65445 0.53715 0.04345 -0.12100
H 	H 	0.03823 0.22297 0.43052 -0.01300
H 	H 	0.61532 0.32205 0.52620 0.03400
H 	H 	0.59129 0.24466 0.55951 0.03100
C 	C 	0.57434 0.19600 0.20802 0.33300
C 	C 	0.73864 0.05860 0.12237 0.01600
C 	C 	0.69415 0.09051 0.15326 0.01700
C 	C 	0.67792 0.01306 0.12299 0.09500
H 	H 	0.77547 0.07189 0.11607 0.03000
C 	C 	0.58081 0.46028 0.16855 -0.00100
H 	H 	0.65933 0.47991 0.11123 0.00300
C 	C 	0.03276 0.49493 0.11965 -0.02200
H 	H 	0.69071 0.13178 0.16981 0.02300
C 	C 	0.03431 0.42820 0.09166 -0.01100
H 	H 	0.60078 0.46105 0.19502 0.01500
H 	H 	0.01484 0.40484 0.06527 0.04900
H 	H 	0.01873 0.52061 0.10749 0.04700
C 	C 	0.97642 0.11819 0.20651 0.35300
C 	C 	0.53787 0.54418 0.49892 0.35800
N 	N 	0.89482 0.17270 0.49089 -0.11600
N 	N 	0.96192 0.16488 0.51292 -0.24000
N 	N 	0.55519 0.21966 0.49888 -0.24700
N 	N 	0.57610 0.28504 0.47024 -0.11700
N 	N 	0.98670 0.18948 0.11038 0.02700
C 	C 	0.87798 0.66696 0.54131 0.00700
C 	C 	0.91870 0.66114 0.55400 0.02700
C 	C 	0.94621 0.16913 0.47407 0.07300
N 	N 	0.65557 0.06142 0.15656 -0.25300
N 	N 	0.06132 0.51067 0.16390 -0.22900
N 	N 	0.72789 0.00914 0.10717 -0.12100
N 	N 	0.06199 0.40953 0.12532 -0.10400
N 	N 	0.63485 0.57637 0.08443 0.02200
O 	O 	0.61216 0.12584 0.46567 -0.44500
C 	C 	0.55350 0.24089 0.46325 0.07100
C 	C 	0.59309 0.29181 0.51171 0.00700
C 	C 	0.93582 0.39821 0.36144 -0.07900
C 	C 	0.94458 0.43377 0.40648 0.11800
C 	C 	0.91556 0.48041 0.44674 -0.05200
C 	C 	0.94198 0.50650 0.47975 -0.07900
C 	C 	0.98564 0.47479 0.45854 0.15300
N 	N 	0.98672 0.43000 0.41496 -0.12700
C 	C 	0.02853 0.48807 0.47643 -0.18300
C 	C 	0.05698 0.44836 0.47138 0.15700
C 	C 	0.60402 0.44938 0.47358 -0.09000
C 	C 	0.61885 0.40045 0.46480 -0.03500
C 	C 	0.58014 0.37114 0.45779 0.06800
N 	N 	0.04323 0.39988 0.45994 -0.12900
C 	C 	0.58506 0.31388 0.43443 0.00000
C 	C 	0.59872 0.28814 0.37732 0.07200
C 	C 	0.62898 0.24217 0.34419 -0.05000
C 	C 	0.62911 0.22705 0.29008 -0.07800
C 	C 	0.09512 0.26192 0.29343 0.12500
N 	N 	0.57884 0.30098 0.34665 -0.12100
C 	C 	0.06542 0.24945 0.25582 -0.14600
C 	C 	0.02132 0.28012 0.27649 0.12200
C 	C 	0.97905 0.26379 0.26461 -0.05600
C 	C 	0.94054 0.30264 0.30154 -0.06400
C 	C 	0.96108 0.34364 0.33131 0.10400
N 	N 	0.01028 0.32965 0.31692 -0.12900
C 	C 	0.90982 0.41392 0.32978 0.10100
O 	O 	0.89231 0.46647 0.35566 -0.27400
C 	C 	0.94832 0.39990 0.26701 0.00700
C 	C 	0.92879 0.40665 0.22662 -0.09200
C 	C 	0.47448 0.41143 0.17649 -0.01100
C 	C 	0.99717 0.46532 0.19121 -0.00500
C 	C 	0.99362 0.47414 0.25567 -0.02000
N 	N 	0.49655 0.42382 0.26204 -0.08800
C 	C 	0.53588 0.38491 0.20898 -0.04200
C 	C 	0.52657 0.38031 0.15475 0.01900
H 	H 	0.87833 0.49392 0.45390 0.06300
H 	H 	0.93043 0.54416 0.51520 0.06100
H 	H 	0.12731 0.48011 0.47465 0.08500
H 	H 	0.65525 0.38697 0.46001 0.04500
H 	H 	0.64925 0.22211 0.35747 0.04200
H 	H 	0.64980 0.19231 0.25435 0.05700
H 	H 	0.97446 0.22653 0.23588 0.07000
H 	H 	0.90263 0.30236 0.30268 0.05100
H 	H 	0.87744 0.39058 0.32891 0.00800
H 	H 	0.85913 0.46958 0.35347 0.14700
H 	H 	0.95522 0.35746 0.24811 0.04100
H 	H 	0.90222 0.44206 0.24943 0.05700
H 	H 	0.90879 0.37322 0.20989 0.05100
H 	H 	0.45915 0.40152 0.14249 0.03300
H 	H 	0.46707 0.49479 0.20278 0.04000
H 	H 	0.09518 0.45512 0.09372 0.06300
H 	H 	0.95741 0.49784 0.28865 0.05500
H 	H 	0.52130 0.49883 0.26956 0.02900
H 	H 	0.53494 0.34651 0.21066 0.05200
H 	H 	0.57426 0.39313 0.20722 0.04700
H 	H 	0.52817 0.33996 0.12491 0.03800
C 	C 	0.81087 0.48772 0.26755 -0.07300
C 	C 	0.76998 0.51031 0.31955 0.10500
C 	C 	0.72386 0.49060 0.33699 -0.05700
C 	C 	0.69183 0.52809 0.38810 -0.07200
C 	C 	0.71880 0.56941 0.40123 0.12900
N 	N 	0.76641 0.55872 0.35933 -0.12400
C 	C 	0.70004 0.61657 0.45735 -0.14400
C 	C 	0.73536 0.64249 0.47699 0.14400
C 	C 	0.72628 0.18313 0.53007 -0.08200
C 	C 	0.77317 0.19634 0.53079 -0.04300
C 	C 	0.80941 0.16375 0.47824 0.07100
N 	N 	0.78621 0.13142 0.44550 -0.11900
C 	C 	0.86521 0.17004 0.45650 0.00300
C 	C 	0.88752 0.17396 0.40466 0.07000
C 	C 	0.92849 0.20057 0.38961 -0.04300
C 	C 	0.94440 0.18745 0.33150 -0.07900
C 	C 	0.91188 0.15455 0.31243 0.13100
N 	N 	0.87603 0.14741 0.35802 -0.11800
C 	C 	0.92278 0.62185 0.24913 -0.15500
C 	C 	0.89612 0.58128 0.23532 0.14400
C 	C 	0.91030 0.54268 0.18053 -0.08800
C 	C 	0.88652 0.50179 0.18737 -0.04700
C 	C 	0.85280 0.51825 0.24510 0.08500
N 	N 	0.85899 0.56744 0.27465 -0.12400
C 	C 	0.81110 0.43398 0.22186 0.09700
O 	O 	0.78394 0.40076 0.24633 -0.28000
C 	C 	0.79850 0.43399 0.17080 -0.00200
C 	C 	0.74932 0.41213 0.16493 -0.08800
C 	C 	0.72010 0.95159 0.15883 -0.00200
C 	C 	0.70871 0.50096 0.21482 -0.07700
C 	C 	0.75898 0.52390 0.21023 -0.01500
N 	N 	0.80279 0.98444 0.16545 -0.09800
C 	C 	0.80614 0.97498 0.10690 -0.04300
C 	C 	0.75347 0.96434 0.10475 0.01700
H 	H 	0.71181 0.45476 0.31480 0.06300
H 	H 	0.65310 0.52506 0.41296 0.06000
H 	H 	0.69010 0.70191 0.56440 0.06700
H 	H 	0.77989 0.22789 0.56496 0.04200
H 	H 	0.94579 0.22657 0.41722 0.04600
H 	H 	0.97909 0.19715 0.30581 0.06300
H 	H 	0.93720 0.54244 0.14005 0.06800
H 	H 	0.89278 0.46452 0.15210 0.04600
H 	H 	0.85097 0.41707 0.20126 0.00600
H 	H 	0.79612 0.36503 0.21654 0.13900
H 	H 	0.82921 0.40558 0.13185 0.03100
H 	H 	0.72484 0.40406 0.20284 0.05600
H 	H 	0.75849 0.37526 0.12590 0.04800
H 	H 	0.68485 0.93620 0.15530 0.02400
H 	H 	0.67985 0.02944 0.22201 0.03200
H 	H 	0.69298 0.49194 0.25363 0.04300
H 	H 	0.76026 0.54278 0.25288 0.04300
H 	H 	0.76088 0.05788 0.20021 0.03700
H 	H 	0.83415 0.94135 0.07305 0.04700
H 	H 	0.82265 0.00680 0.09508 0.05000
H 	H 	0.75772 0.93065 0.06402 0.03600
C 	C 	0.58048 0.25148 0.02901 0.05000
Mn	Mn	0.53787 0.14684 0.99380 1.29200
O 	O 	0.56002 0.18934 0.66497 -0.40400
O 	O 	0.62501 0.13791 0.04819 -0.36800
O 	O 	0.02853 0.16868 0.07532 -0.48500
Mn	Mn	0.55776 0.12672 0.59941 1.37600
O 	O 	0.98040 0.23481 0.13819 -0.13600
Mn	Mn	0.58023 0.08506 0.68891 1.31600
O 	O 	0.59187 0.15760 0.71436 -0.45500
O 	O 	0.00939 0.10761 0.72372 -0.48500
O 	O 	0.98904 0.11943 0.65437 -0.40300
C 	C 	0.64280 0.12911 0.99270 0.29000
H 	H 	0.83935 0.66267 0.06515 0.02900
O 	O 	0.55745 0.56044 0.03781 -0.38900
O 	O 	0.52220 0.57608 0.98311 -0.46600
H 	H 	0.91631 0.64992 0.08813 0.03300
O 	O 	0.59008 0.58151 0.61449 -0.50400
H 	H 	0.97316 0.16358 0.93140 -0.00800
O 	O 	0.65444 0.53715 0.54345 -0.13600
H 	H 	0.03823 0.22297 0.93052 -0.01300
H 	H 	0.61532 0.32204 0.02620 0.03700
H 	H 	0.59129 0.24465 0.05951 0.03000
C 	C 	0.57434 0.19600 0.70802 0.33300
C 	C 	0.73863 0.05860 0.62237 0.01300
C 	C 	0.69415 0.09051 0.65326 0.01700
C 	C 	0.67792 0.01306 0.62299 0.09200
H 	H 	0.77547 0.07189 0.61607 0.02700
C 	C 	0.58081 0.46028 0.66855 -0.00100
H 	H 	0.65933 0.47991 0.61123 0.00100
C 	C 	0.03276 0.49493 0.61965 -0.02500
H 	H 	0.69071 0.13177 0.66981 0.02200
C 	C 	0.03430 0.42820 0.59166 -0.01700
H 	H 	0.60078 0.46105 0.69502 0.01500
H 	H 	0.01483 0.40484 0.56527 0.04000
H 	H 	0.01873 0.52061 0.60750 0.04400
C 	C 	0.97642 0.11819 0.70651 0.35400
C 	C 	0.53788 0.54418 0.99892 0.32100
N 	N 	0.89482 0.17269 0.99089 -0.13300
N 	N 	0.96192 0.16488 0.01292 -0.21200
N 	N 	0.55519 0.21966 0.99888 -0.26900
N 	N 	0.57610 0.28504 0.97024 -0.13500
N 	N 	0.98670 0.18948 0.61038 0.02700
C 	C 	0.87798 0.66696 0.04131 0.04300
C 	C 	0.91870 0.66114 0.05400 0.02100
C 	C 	0.94621 0.16913 0.97407 0.03900
N 	N 	0.65557 0.06142 0.65656 -0.25300
N 	N 	0.06131 0.51067 0.66390 -0.22900
N 	N 	0.72788 0.00914 0.60716 -0.12300
N 	N 	0.06199 0.40953 0.62532 -0.10500
N 	N 	0.63484 0.57637 0.58443 0.02300
O 	O 	0.61216 0.12584 0.96567 -0.44300
C 	C 	0.55350 0.24089 0.96325 0.06400
C 	C 	0.59309 0.29181 0.01170 0.03400
C 	C 	0.93582 0.39821 0.86144 -0.07800
C 	C 	0.94458 0.43376 0.90648 0.10800
C 	C 	0.91556 0.48041 0.94674 -0.03300
C 	C 	0.94198 0.50650 0.97975 -0.13500
C 	C 	0.98564 0.47479 0.95854 0.16500
N 	N 	0.98672 0.42999 0.91496 -0.12900
C 	C 	0.02853 0.48807 0.97643 -0.18600
C 	C 	0.05698 0.44836 0.97138 0.15000
C 	C 	0.60402 0.44938 0.97358 -0.09500
C 	C 	0.61886 0.40045 0.96480 -0.04000
C 	C 	0.58014 0.37114 0.95779 0.06000
N 	N 	0.04323 0.39988 0.95994 -0.13300
C 	C 	0.58506 0.31388 0.93443 -0.00400
C 	C 	0.59872 0.28814 0.87732 0.07200
C 	C 	0.62898 0.24217 0.84419 -0.05100
C 	C 	0.62912 0.22705 0.79007 -0.07800
C 	C 	0.09512 0.26192 0.79343 0.12500
N 	N 	0.57884 0.30098 0.84664 -0.12200
C 	C 	0.06542 0.24945 0.75582 -0.14600
C 	C 	0.02133 0.28012 0.77649 0.12200
C 	C 	0.97905 0.26379 0.76461 -0.05500
C 	C 	0.94054 0.30264 0.80154 -0.06500
C 	C 	0.96108 0.34364 0.83130 0.10200
N 	N 	0.01028 0.32965 0.81692 -0.12900
C 	C 	0.90982 0.41392 0.82978 0.10000
O 	O 	0.89231 0.46647 0.85566 -0.27500
C 	C 	0.94832 0.39990 0.76701 0.00800
C 	C 	0.92879 0.40666 0.72663 -0.09300
C 	C 	0.47448 0.41143 0.67649 -0.01100
C 	C 	0.99717 0.46532 0.69121 -0.00400
C 	C 	0.99362 0.47414 0.75567 -0.02000
N 	N 	0.49654 0.42382 0.76204 -0.08800
C 	C 	0.53587 0.38491 0.70898 -0.04200
C 	C 	0.52657 0.38032 0.65475 0.01800
H 	H 	0.87833 0.49392 0.95390 0.05000
H 	H 	0.93043 0.54415 0.01520 0.09800
H 	H 	0.12732 0.48010 0.97465 0.07600
H 	H 	0.65525 0.38697 0.96001 0.03700
H 	H 	0.64926 0.22210 0.85747 0.03900
H 	H 	0.64980 0.19231 0.75435 0.05700
H 	H 	0.97446 0.22653 0.73588 0.07000
H 	H 	0.90263 0.30236 0.80268 0.04900
H 	H 	0.87744 0.39058 0.82891 0.00600
H 	H 	0.85913 0.46958 0.85348 0.14500
H 	H 	0.95522 0.35746 0.74811 0.04100
H 	H 	0.90222 0.44206 0.74943 0.05700
H 	H 	0.90879 0.37322 0.70990 0.05000
H 	H 	0.45914 0.40152 0.64249 0.03100
H 	H 	0.46707 0.49479 0.70279 0.04000
H 	H 	0.09518 0.45512 0.59372 0.05800
H 	H 	0.95740 0.49784 0.78865 0.05400
H 	H 	0.52130 0.49883 0.76956 0.02900
H 	H 	0.53494 0.34651 0.71065 0.05200
H 	H 	0.57425 0.39313 0.70722 0.04700
H 	H 	0.52817 0.33996 0.62491 0.03600
C 	C 	0.81087 0.48772 0.76755 -0.07400
C 	C 	0.76998 0.51031 0.81955 0.10400
C 	C 	0.72386 0.49060 0.83699 -0.05800
C 	C 	0.69183 0.52809 0.88810 -0.07000
C 	C 	0.71880 0.56941 0.90123 0.12000
N 	N 	0.76641 0.55872 0.85933 -0.12400
C 	C 	0.70004 0.61657 0.95735 -0.12600
C 	C 	0.73537 0.64249 0.97699 0.09700
C 	C 	0.72628 0.18313 0.03007 -0.04400
C 	C 	0.77317 0.19634 0.03079 -0.00900
C 	C 	0.80941 0.16375 0.97824 0.03000
N 	N 	0.78621 0.13142 0.94550 -0.10900
C 	C 	0.86521 0.17004 0.95650 0.00600
C 	C 	0.88752 0.17396 0.90466 0.06500
C 	C 	0.92849 0.20057 0.88961 -0.04300
C 	C 	0.94440 0.18745 0.83150 -0.08000
C 	C 	0.91188 0.15455 0.81243 0.13100
N 	N 	0.87603 0.14741 0.85802 -0.11800
C 	C 	0.92278 0.62185 0.74913 -0.15600
C 	C 	0.89612 0.58128 0.73532 0.14400
C 	C 	0.91030 0.54268 0.68053 -0.08800
C 	C 	0.88652 0.50179 0.68737 -0.04800
C 	C 	0.85280 0.51826 0.74509 0.08500
N 	N 	0.85899 0.56744 0.77465 -0.12400
C 	C 	0.81110 0.43398 0.72186 0.09700
O 	O 	0.78394 0.40076 0.74633 -0.28100
C 	C 	0.79849 0.43399 0.67080 -0.00200
C 	C 	0.74932 0.41214 0.66494 -0.08700
C 	C 	0.72010 0.95159 0.65883 -0.00200
C 	C 	0.70871 0.50096 0.71482 -0.07700
C 	C 	0.75898 0.52390 0.71023 -0.01500
N 	N 	0.80279 0.98444 0.66545 -0.09800
C 	C 	0.80614 0.97497 0.60690 -0.04100
C 	C 	0.75346 0.96434 0.60475 0.01600
H 	H 	0.71181 0.45476 0.81479 0.06300
H 	H 	0.65310 0.52506 0.91296 0.05700
H 	H 	0.69010 0.70191 0.06440 0.06200
H 	H 	0.77989 0.22789 0.06496 0.03900
H 	H 	0.94579 0.22657 0.91722 0.04200
H 	H 	0.97909 0.19715 0.80581 0.06300
H 	H 	0.93720 0.54244 0.64005 0.06500
H 	H 	0.89278 0.46452 0.65210 0.04300
H 	H 	0.85097 0.41707 0.70126 0.00500
H 	H 	0.79612 0.36503 0.71654 0.13800
H 	H 	0.82920 0.40558 0.63185 0.02800
H 	H 	0.72483 0.40407 0.70285 0.05600
H 	H 	0.75849 0.37526 0.62591 0.04400
H 	H 	0.68485 0.93620 0.65531 0.02300
H 	H 	0.67985 0.02944 0.72201 0.03200
H 	H 	0.69298 0.49194 0.75363 0.04300
H 	H 	0.76026 0.54278 0.75288 0.04300
H 	H 	0.76089 0.05788 0.70020 0.03700
H 	H 	0.83415 0.94135 0.57305 0.04000
H 	H 	0.82265 0.00679 0.59508 0.04500
H 	H 	0.75772 0.93065 0.56402 0.03000
C 	C 	0.58048 0.75148 0.52901 0.02300
Mn	Mn	0.53787 0.64684 0.49380 1.30400
O 	O 	0.56002 0.68934 0.16497 -0.40500
O 	O 	0.62501 0.63791 0.54819 -0.39900
O 	O 	0.02853 0.66868 0.57532 -0.49800
Mn	Mn	0.55776 0.62672 0.09941 1.37600
O 	O 	0.98040 0.73481 0.63819 -0.13900
Mn	Mn	0.58023 0.58506 0.18891 1.31600
O 	O 	0.59187 0.65760 0.21436 -0.45500
O 	O 	0.00939 0.60761 0.22372 -0.48400
O 	O 	0.98904 0.61943 0.15437 -0.40300
C 	C 	0.64280 0.62911 0.49270 0.33700
H 	H 	0.83935 0.16267 0.56515 0.03200
O 	O 	0.55745 0.06044 0.53781 -0.42300
O 	O 	0.52220 0.07608 0.48310 -0.46200
H 	H 	0.91631 0.14992 0.58813 0.02800
O 	O 	0.59009 0.08151 0.11449 -0.50300
H 	H 	0.97316 0.66358 0.43140 -0.01400
O 	O 	0.65445 0.03715 0.04345 -0.12100
H 	H 	0.03823 0.72297 0.43052 -0.01300
H 	H 	0.61532 0.82205 0.52620 0.03400
H 	H 	0.59129 0.74466 0.55951 0.03100
C 	C 	0.57434 0.69600 0.20802 0.33300
C 	C 	0.73864 0.55860 0.12237 0.01600
C 	C 	0.69415 0.59051 0.15326 0.01700
C 	C 	0.67792 0.51306 0.12299 0.09400
H 	H 	0.77547 0.57189 0.11607 0.03000
C 	C 	0.58081 0.96028 0.16855 -0.00100
H 	H 	0.65933 0.97991 0.11123 0.00300
C 	C 	0.03276 0.99493 0.11965 -0.02200
H 	H 	0.69071 0.63178 0.16981 0.02300
C 	C 	0.03431 0.92820 0.09166 -0.01100
H 	H 	0.60078 0.96105 0.19502 0.01500
H 	H 	0.01484 0.90484 0.06527 0.04900
H 	H 	0.01873 0.02061 0.10749 0.04700
C 	C 	0.97642 0.61819 0.20651 0.35200
C 	C 	0.53787 0.04418 0.49892 0.35800
N 	N 	0.89482 0.67270 0.49089 -0.11600
N 	N 	0.96192 0.66488 0.51292 -0.24000
N 	N 	0.55519 0.71966 0.49888 -0.24700
N 	N 	0.57610 0.78504 0.47024 -0.11700
N 	N 	0.98670 0.68948 0.11037 0.02700
C 	C 	0.87798 0.16696 0.54131 0.00700
C 	C 	0.91870 0.16114 0.55400 0.02700
C 	C 	0.94621 0.66913 0.47407 0.07200
N 	N 	0.65557 0.56142 0.15656 -0.25300
N 	N 	0.06132 0.01067 0.16390 -0.22900
N 	N 	0.72789 0.50915 0.10717 -0.12100
N 	N 	0.06199 0.90953 0.12532 -0.10400
N 	N 	0.63485 0.07637 0.08443 0.02200
O 	O 	0.61216 0.62584 0.46567 -0.44500
C 	C 	0.55350 0.74089 0.46325 0.07100
C 	C 	0.59309 0.79181 0.51171 0.00700
C 	C 	0.93582 0.89821 0.36144 -0.07900
C 	C 	0.94458 0.93377 0.40648 0.11800
C 	C 	0.91556 0.98041 0.44674 -0.05300
C 	C 	0.94198 0.00650 0.47975 -0.07800
C 	C 	0.98564 0.97479 0.45854 0.15100
N 	N 	0.98672 0.92999 0.41496 -0.12700
C 	C 	0.02853 0.98807 0.47643 -0.18200
C 	C 	0.05697 0.94836 0.47138 0.15700
C 	C 	0.60402 0.94938 0.47358 -0.09000
C 	C 	0.61885 0.90045 0.46480 -0.03500
C 	C 	0.58014 0.87114 0.45779 0.06800
N 	N 	0.04323 0.89988 0.45994 -0.12900
C 	C 	0.58506 0.81388 0.43443 0.00000
C 	C 	0.59872 0.78814 0.37732 0.07200
C 	C 	0.62898 0.74217 0.34419 -0.05000
C 	C 	0.62912 0.72705 0.29008 -0.07800
C 	C 	0.09512 0.76192 0.29343 0.12500
N 	N 	0.57884 0.80098 0.34665 -0.12100
C 	C 	0.06542 0.74945 0.25582 -0.14600
C 	C 	0.02132 0.78012 0.27649 0.12300
C 	C 	0.97905 0.76379 0.26461 -0.05600
C 	C 	0.94054 0.80264 0.30154 -0.06400
C 	C 	0.96108 0.84364 0.33131 0.10400
N 	N 	0.01028 0.82965 0.31692 -0.12900
C 	C 	0.90982 0.91392 0.32978 0.10100
O 	O 	0.89231 0.96647 0.35566 -0.27400
C 	C 	0.94832 0.89990 0.26701 0.00700
C 	C 	0.92879 0.90665 0.22662 -0.09200
C 	C 	0.47448 0.91143 0.17649 -0.01100
C 	C 	0.99717 0.96532 0.19121 -0.00500
C 	C 	0.99362 0.97414 0.25567 -0.02100
N 	N 	0.49655 0.92382 0.26204 -0.08800
C 	C 	0.53588 0.88491 0.20898 -0.04200
C 	C 	0.52657 0.88031 0.15475 0.01900
H 	H 	0.87833 0.99392 0.45390 0.06300
H 	H 	0.93043 0.04416 0.51520 0.06100
H 	H 	0.12731 0.98011 0.47465 0.08500
H 	H 	0.65525 0.88697 0.46001 0.04500
H 	H 	0.64926 0.72211 0.35747 0.04200
H 	H 	0.64980 0.69232 0.25435 0.05700
H 	H 	0.97446 0.72653 0.23588 0.07000
H 	H 	0.90263 0.80236 0.30268 0.05100
H 	H 	0.87744 0.89058 0.32891 0.00800
H 	H 	0.85913 0.96958 0.35347 0.14700
H 	H 	0.95522 0.85746 0.24811 0.04100
H 	H 	0.90222 0.94206 0.24943 0.05700
H 	H 	0.90879 0.87322 0.20989 0.05100
H 	H 	0.45915 0.90152 0.14249 0.03300
H 	H 	0.46707 0.99479 0.20278 0.03900
H 	H 	0.09518 0.95512 0.09372 0.06300
H 	H 	0.95741 0.99784 0.28865 0.05500
H 	H 	0.52130 0.99883 0.26956 0.02900
H 	H 	0.53494 0.84651 0.21066 0.05200
H 	H 	0.57426 0.89313 0.20722 0.04700
H 	H 	0.52817 0.83996 0.12491 0.03800
C 	C 	0.81087 0.98772 0.26755 -0.07500
C 	C 	0.76998 0.01031 0.31955 0.10600
C 	C 	0.72386 0.99060 0.33699 -0.05800
C 	C 	0.69183 0.02809 0.38810 -0.07100
C 	C 	0.71880 0.06941 0.40123 0.12900
N 	N 	0.76641 0.05872 0.35933 -0.12500
C 	C 	0.70004 0.11657 0.45735 -0.14300
C 	C 	0.73536 0.14249 0.47699 0.14400
C 	C 	0.72628 0.68313 0.53007 -0.08200
C 	C 	0.77317 0.69634 0.53079 -0.04300
C 	C 	0.80941 0.66375 0.47824 0.07100
N 	N 	0.78621 0.63142 0.44550 -0.11900
C 	C 	0.86521 0.67004 0.45650 0.00300
C 	C 	0.88752 0.67396 0.40466 0.07000
C 	C 	0.92849 0.70057 0.38961 -0.04300
C 	C 	0.94440 0.68745 0.33150 -0.07900
C 	C 	0.91188 0.65455 0.31243 0.13100
N 	N 	0.87603 0.64741 0.35802 -0.11800
C 	C 	0.92278 0.12185 0.24913 -0.15500
C 	C 	0.89612 0.08128 0.23532 0.14400
C 	C 	0.91030 0.04268 0.18053 -0.08800
C 	C 	0.88652 0.00179 0.18737 -0.04700
C 	C 	0.85280 0.01825 0.24510 0.08500
N 	N 	0.85899 0.06744 0.27465 -0.12400
C 	C 	0.81110 0.93398 0.22186 0.09700
O 	O 	0.78394 0.90076 0.24633 -0.28100
C 	C 	0.79850 0.93399 0.17080 -0.00200
C 	C 	0.74932 0.91213 0.16493 -0.08700
C 	C 	0.72010 0.45159 0.15883 -0.00200
C 	C 	0.70871 0.00096 0.21482 -0.07600
C 	C 	0.75898 0.02390 0.21023 -0.01500
N 	N 	0.80279 0.48444 0.16545 -0.09800
C 	C 	0.80614 0.47498 0.10690 -0.04300
C 	C 	0.75347 0.46434 0.10475 0.01700
H 	H 	0.71181 0.95476 0.31480 0.06400
H 	H 	0.65310 0.02506 0.41296 0.06000
H 	H 	0.69010 0.20191 0.56440 0.06700
H 	H 	0.77989 0.72789 0.56496 0.04200
H 	H 	0.94579 0.72657 0.41722 0.04600
H 	H 	0.97910 0.69715 0.30581 0.06300
H 	H 	0.93720 0.04244 0.14005 0.06800
H 	H 	0.89278 0.96452 0.15211 0.04500
H 	H 	0.85097 0.91707 0.20126 0.00600
H 	H 	0.79612 0.86503 0.21654 0.13900
H 	H 	0.82921 0.90558 0.13185 0.03100
H 	H 	0.72484 0.90406 0.20284 0.05600
H 	H 	0.75849 0.87526 0.12590 0.04800
H 	H 	0.68485 0.43620 0.15530 0.02400
H 	H 	0.67985 0.52944 0.22201 0.03200
H 	H 	0.69298 0.99194 0.25363 0.04300
H 	H 	0.76026 0.04278 0.25288 0.04300
H 	H 	0.76088 0.55788 0.20021 0.03700
H 	H 	0.83415 0.44135 0.07305 0.04700
H 	H 	0.82265 0.50680 0.09508 0.05000
H 	H 	0.75772 0.43065 0.06402 0.03600
C 	C 	0.58048 0.75148 0.02901 0.04900
Mn	Mn	0.53787 0.64684 0.99380 1.29200
O 	O 	0.56002 0.68934 0.66497 -0.40400
O 	O 	0.62501 0.63791 0.04819 -0.36900
O 	O 	0.02853 0.66868 0.07532 -0.48500
Mn	Mn	0.55776 0.62672 0.59941 1.37600
O 	O 	0.98040 0.73481 0.13819 -0.13700
Mn	Mn	0.58023 0.58506 0.68891 1.31600
O 	O 	0.59187 0.65760 0.71436 -0.45500
O 	O 	0.00939 0.60761 0.72372 -0.48500
O 	O 	0.98904 0.61943 0.65437 -0.40300
C 	C 	0.64280 0.62911 0.99270 0.29100
H 	H 	0.83935 0.16267 0.06515 0.02900
O 	O 	0.55745 0.06044 0.03781 -0.38900
O 	O 	0.52220 0.07608 0.98311 -0.46600
H 	H 	0.91631 0.14992 0.08813 0.03300
O 	O 	0.59008 0.08151 0.61449 -0.50400
H 	H 	0.97316 0.66358 0.93140 -0.00800
O 	O 	0.65444 0.03715 0.54345 -0.13600
H 	H 	0.03823 0.72297 0.93052 -0.01300
H 	H 	0.61532 0.82204 0.02620 0.03700
H 	H 	0.59129 0.74465 0.05951 0.03000
C 	C 	0.57434 0.69600 0.70802 0.33300
C 	C 	0.73863 0.55860 0.62237 0.01300
C 	C 	0.69415 0.59051 0.65326 0.01700
C 	C 	0.67792 0.51306 0.62299 0.09300
H 	H 	0.77547 0.57189 0.61607 0.02700
C 	C 	0.58081 0.96028 0.66855 -0.00100
H 	H 	0.65933 0.97991 0.61123 0.00100
C 	C 	0.03276 0.99493 0.61965 -0.02400
H 	H 	0.69071 0.63177 0.66981 0.02200
C 	C 	0.03430 0.92820 0.59166 -0.01700
H 	H 	0.60078 0.96105 0.69502 0.01500
H 	H 	0.01483 0.90484 0.56527 0.04100
H 	H 	0.01873 0.02061 0.60750 0.04300
C 	C 	0.97642 0.61819 0.70651 0.35300
C 	C 	0.53787 0.04418 0.99892 0.32000
N 	N 	0.89482 0.67269 0.99089 -0.13300
N 	N 	0.96192 0.66488 0.01292 -0.21300
N 	N 	0.55519 0.71966 0.99888 -0.26800
N 	N 	0.57610 0.78504 0.97024 -0.13400
N 	N 	0.98670 0.68948 0.61038 0.02700
C 	C 	0.87798 0.16696 0.04131 0.04400
C 	C 	0.91870 0.16114 0.05400 0.02100
C 	C 	0.94621 0.66913 0.97407 0.04000
N 	N 	0.65557 0.56142 0.65656 -0.25300
N 	N 	0.06131 0.01067 0.66390 -0.22900
N 	N 	0.72788 0.50914 0.60716 -0.12300
N 	N 	0.06199 0.90953 0.62532 -0.10500
N 	N 	0.63484 0.07637 0.58443 0.02300
O 	O 	0.61216 0.62584 0.96567 -0.44300
C 	C 	0.55350 0.74089 0.96325 0.06400
C 	C 	0.59309 0.79181 0.01170 0.03300
C 	C 	0.93582 0.89821 0.86144 -0.07800
C 	C 	0.94458 0.93376 0.90648 0.10800
C 	C 	0.91556 0.98041 0.94674 -0.03200
C 	C 	0.94198 0.00650 0.97975 -0.13600
C 	C 	0.98564 0.97479 0.95854 0.16500
N 	N 	0.98672 0.92999 0.91496 -0.12900
C 	C 	0.02853 0.98807 0.97643 -0.18400
C 	C 	0.05698 0.94836 0.97138 0.15000
C 	C 	0.60402 0.94938 0.97358 -0.09500
C 	C 	0.61886 0.90045 0.96480 -0.04000
C 	C 	0.58014 0.87114 0.95779 0.06000
N 	N 	0.04323 0.89988 0.95994 -0.13200
C 	C 	0.58506 0.81388 0.93443 -0.00400
C 	C 	0.59872 0.78814 0.87732 0.07200
C 	C 	0.62898 0.74217 0.84419 -0.05100
C 	C 	0.62912 0.72705 0.79007 -0.07800
C 	C 	0.09512 0.76192 0.79343 0.12500
N 	N 	0.57884 0.80098 0.84664 -0.12200
C 	C 	0.06542 0.74945 0.75582 -0.14600
C 	C 	0.02133 0.78012 0.77649 0.12200
C 	C 	0.97905 0.76379 0.76461 -0.05500
C 	C 	0.94054 0.80264 0.80154 -0.06500
C 	C 	0.96108 0.84364 0.83130 0.10200
N 	N 	0.01028 0.82965 0.81692 -0.12900
C 	C 	0.90982 0.91392 0.82978 0.10000
O 	O 	0.89231 0.96647 0.85566 -0.27500
C 	C 	0.94832 0.89990 0.76701 0.00800
C 	C 	0.92879 0.90666 0.72663 -0.09300
C 	C 	0.47448 0.91143 0.67649 -0.01100
C 	C 	0.99717 0.96532 0.69121 -0.00400
C 	C 	0.99362 0.97414 0.75567 -0.02000
N 	N 	0.49654 0.92382 0.76204 -0.08800
C 	C 	0.53587 0.88491 0.70898 -0.04200
C 	C 	0.52657 0.88031 0.65475 0.01800
H 	H 	0.87833 0.99392 0.95390 0.05000
H 	H 	0.93043 0.04415 0.01520 0.09800
H 	H 	0.12732 0.98010 0.97465 0.07600
H 	H 	0.65525 0.88697 0.96001 0.03700
H 	H 	0.64926 0.72210 0.85747 0.03900
H 	H 	0.64980 0.69231 0.75435 0.05700
H 	H 	0.97446 0.72653 0.73588 0.07000
H 	H 	0.90263 0.80236 0.80268 0.04900
H 	H 	0.87744 0.89058 0.82891 0.00600
H 	H 	0.85913 0.96958 0.85348 0.14600
H 	H 	0.95522 0.85746 0.74811 0.04100
H 	H 	0.90222 0.94206 0.74943 0.05700
H 	H 	0.90879 0.87322 0.70990 0.05000
H 	H 	0.45914 0.90152 0.64249 0.03100
H 	H 	0.46707 0.99479 0.70279 0.04000
H 	H 	0.09518 0.95512 0.59372 0.05800
H 	H 	0.95740 0.99784 0.78865 0.05500
H 	H 	0.52130 0.99883 0.76956 0.02900
H 	H 	0.53494 0.84651 0.71065 0.05200
H 	H 	0.57425 0.89313 0.70722 0.04700
H 	H 	0.52817 0.83996 0.62491 0.03600
C 	C 	0.81087 0.98772 0.76755 -0.07300
C 	C 	0.76998 0.01031 0.81955 0.10300
C 	C 	0.72386 0.99060 0.83699 -0.05700
C 	C 	0.69183 0.02809 0.88810 -0.07100
C 	C 	0.71880 0.06941 0.90123 0.12000
N 	N 	0.76641 0.05872 0.85933 -0.12400
C 	C 	0.70004 0.11657 0.95735 -0.12600
C 	C 	0.73536 0.14249 0.97699 0.09600
C 	C 	0.72629 0.68313 0.03007 -0.04400
C 	C 	0.77317 0.69634 0.03079 -0.01000
C 	C 	0.80941 0.66375 0.97824 0.03100
N 	N 	0.78621 0.63142 0.94550 -0.11000
C 	C 	0.86521 0.67004 0.95650 0.00600
C 	C 	0.88752 0.67396 0.90466 0.06600
C 	C 	0.92849 0.70057 0.88961 -0.04300
C 	C 	0.94440 0.68745 0.83150 -0.08000
C 	C 	0.91188 0.65455 0.81243 0.13100
N 	N 	0.87603 0.64741 0.85802 -0.11800
C 	C 	0.92278 0.12185 0.74913 -0.15600
C 	C 	0.89612 0.08128 0.73532 0.14400
C 	C 	0.91030 0.04268 0.68053 -0.08800
C 	C 	0.88652 0.00179 0.68737 -0.04800
C 	C 	0.85280 0.01826 0.74509 0.08400
N 	N 	0.85899 0.06744 0.77465 -0.12400
C 	C 	0.81110 0.93398 0.72186 0.09700
O 	O 	0.78394 0.90076 0.74633 -0.28100
C 	C 	0.79849 0.93399 0.67080 -0.00200
C 	C 	0.74932 0.91214 0.66494 -0.08700
C 	C 	0.72010 0.45159 0.65883 -0.00200
C 	C 	0.70871 0.00096 0.71482 -0.07700
C 	C 	0.75898 0.02390 0.71023 -0.01500
N 	N 	0.80279 0.48444 0.66545 -0.09800
C 	C 	0.80614 0.47497 0.60690 -0.04100
C 	C 	0.75346 0.46434 0.60475 0.01600
H 	H 	0.71181 0.95476 0.81480 0.06300
H 	H 	0.65310 0.02506 0.91296 0.05700
H 	H 	0.69010 0.20191 0.06440 0.06200
H 	H 	0.77989 0.72789 0.06496 0.03900
H 	H 	0.94579 0.72657 0.91722 0.04200
H 	H 	0.97909 0.69715 0.80581 0.06300
H 	H 	0.93720 0.04244 0.64005 0.06500
H 	H 	0.89278 0.96452 0.65210 0.04300
H 	H 	0.85097 0.91707 0.70126 0.00500
H 	H 	0.79612 0.86503 0.71654 0.13800
H 	H 	0.82920 0.90558 0.63185 0.02800
H 	H 	0.72483 0.90407 0.70285 0.05600
H 	H 	0.75849 0.87526 0.62591 0.04400
H 	H 	0.68485 0.43620 0.65531 0.02300
H 	H 	0.67985 0.52944 0.72201 0.03200
H 	H 	0.69298 0.99194 0.75363 0.04400
H 	H 	0.76026 0.04278 0.75288 0.04300
H 	H 	0.76089 0.55788 0.70020 0.03700
H 	H 	0.83415 0.44135 0.57305 0.04000
H 	H 	0.82265 0.50679 0.59508 0.04500
H 	H 	0.75772 0.43065 0.56402 0.03000
