data_crystal

_cell_length_a 29.00700
_cell_length_b 29.01350
_cell_length_c 33.96210
_cell_angle_alpha 80.58900
_cell_angle_beta  114.85100
_cell_angle_gamma 91.80900

_symmetry_space_group_name_	'P 1'
_symmetry_space_group_name_H-M	'P 1'

loop_
_symmetry_equiv_pos_as_xyz
  x,y,z

loop_
_atom_site_label
_atom_site_type_symbol
_atom_site_fract_x
_atom_site_fract_y
_atom_site_fract_z
_atom_site_charge
C 	C 	0.22107 0.21915 0.39026 0.31200
O 	O 	0.21579 0.55832 0.37549 -0.43500
Fe	Fe	0.66469 0.08178 0.44150 1.19900
Fe	Fe	0.20491 0.12247 0.37297 1.23800
O 	O 	0.24394 0.51159 0.44480 -0.42500
O 	O 	0.31082 0.07451 0.22692 -0.44900
O 	O 	0.31873 0.02765 0.18343 -0.42300
Fe	Fe	0.26958 0.06701 0.13716 1.26000
Fe	Fe	0.24063 0.06237 0.21866 1.22000
O 	O 	0.61675 0.08223 0.14100 -0.37100
O 	O 	0.65038 0.53862 0.20179 -0.42200
O 	O 	0.22056 0.05331 0.16025 -0.65400
C 	C 	0.25654 0.48420 0.28259 0.06900
C 	C 	0.22661 0.51671 0.40170 0.33300
C 	C 	0.19640 0.15801 0.16127 0.32800
C 	C 	0.33997 0.05458 0.21232 0.31300
C 	C 	0.61626 0.07885 0.33681 0.04100
C 	C 	0.62926 0.07112 0.18621 0.28000
O 	O 	0.24657 0.52991 0.26582 -0.11700
O 	O 	0.24801 0.52902 0.26884 -0.16900
O 	O 	0.22084 0.12975 0.19924 -0.43400
O 	O 	0.17482 0.14526 0.12276 -0.42600
O 	O 	0.63556 0.10484 0.36635 -0.10300
C 	C 	0.31720 0.11855 0.41705 0.31000
O 	O 	0.62612 0.10390 0.37129 -0.28300
O 	O 	0.31871 0.08232 0.44651 -0.40500
O 	O 	0.27463 0.13910 0.38544 -0.40200
O 	O 	0.21916 0.10070 0.42866 -0.72900
O 	O 	0.18774 0.18715 0.37452 -0.39100
O 	O 	0.26397 0.20572 0.42357 -0.26000
C 	C 	0.15502 0.32600 0.30577 -0.10400
C 	C 	0.17648 0.28031 0.32330 0.11800
C 	C 	0.16459 0.24384 0.29378 -0.21200
C 	C 	0.21073 0.26967 0.36855 -0.15200
C 	C 	0.23741 0.30813 0.38910 0.09700
C 	C 	0.28508 0.30166 0.43179 -0.20600
C 	C 	0.21741 0.35429 0.36888 -0.06100
C 	C 	0.24857 0.39679 0.37750 -0.06600
C 	C 	0.26592 0.41585 0.34474 0.08100
C 	C 	0.29751 0.38650 0.33197 -0.19800
C 	C 	0.25062 0.46245 0.32320 -0.11000
C 	C 	0.22113 0.48597 0.33737 0.15800
C 	C 	0.17522 0.51385 0.30492 -0.24900
C 	C 	0.22844 0.47598 0.38098 -0.18200
C 	C 	0.23826 0.42844 0.40090 0.11600
C 	C 	0.73124 0.41058 0.44176 -0.21300
C 	C 	0.16939 0.36011 0.33267 0.08100
C 	C 	0.13814 0.40533 0.31661 -0.19900
C 	C 	0.13067 0.34307 0.25785 0.06900
C 	C 	0.07830 0.34166 0.23286 -0.08400
C 	C 	0.55778 0.35794 0.18624 -0.01600
C 	C 	0.08953 0.37537 0.16727 -0.03700
C 	C 	0.07910 0.36275 0.12544 -0.01200
C 	C 	0.59467 0.33338 0.11155 -0.02200
C 	C 	0.61890 0.28789 0.12227 -0.00200
C 	C 	0.16376 0.28328 0.11823 -0.05200
C 	C 	0.69483 0.24322 0.13614 0.01200
C 	C 	0.68106 0.20608 0.16027 -0.08300
C 	C 	0.63682 0.21042 0.16629 -0.02900
C 	C 	0.60574 0.25101 0.14796 0.03800
C 	C 	0.55949 0.25344 0.15704 -0.18200
C 	C 	0.14086 0.38312 0.19350 0.06600
C 	C 	0.17681 0.40131 0.17342 -0.18600
C 	C 	0.16115 0.36534 0.23833 -0.11200
H 	H 	0.19807 0.21974 0.30404 0.06600
H 	H 	0.13241 0.22416 0.29587 0.07200
H 	H 	0.15478 0.25894 0.25897 0.07200
H 	H 	0.30845 0.33295 0.43525 0.07000
H 	H 	0.27495 0.29555 0.46015 0.07100
H 	H 	0.27378 0.28736 0.10602 0.07500
H 	H 	0.28014 0.38680 0.29605 0.06200
H 	H 	0.30252 0.34982 0.34919 0.07100
H 	H 	0.33570 0.40130 0.34129 0.06800
H 	H 	0.18982 0.54781 0.30009 0.10600
H 	H 	0.15815 0.50032 0.27352 0.09100
H 	H 	0.14539 0.51470 0.31717 0.08200
H 	H 	0.26848 0.40977 0.47111 0.08200
H 	H 	0.70256 0.43258 0.44446 0.07700
H 	H 	0.71797 0.37437 0.44249 0.06900
H 	H 	0.09706 0.39826 0.30131 0.06600
H 	H 	0.14340 0.42429 0.34377 0.06800
H 	H 	0.14747 0.42651 0.29108 0.07100
H 	H 	0.55406 0.32596 0.24660 0.04200
H 	H 	0.51843 0.35153 0.16642 0.02600
H 	H 	0.17581 0.31234 0.10096 0.04000
H 	H 	0.22768 0.23850 0.13090 0.02800
H 	H 	0.62378 0.18054 0.18182 0.03800
H 	H 	0.54215 0.21882 0.15687 0.06500
H 	H 	0.53014 0.27910 0.13205 0.07000
H 	H 	0.57090 0.26282 0.19005 0.06300
H 	H 	0.20740 0.42078 0.19600 0.04500
H 	H 	0.19439 0.37155 0.16704 0.06400
H 	H 	0.15639 0.42553 0.14201 0.05500
H 	H 	0.20135 0.36733 0.25797 0.05400
C 	C 	0.41491 0.15433 0.23336 -0.10300
C 	C 	0.37274 0.13366 0.20524 0.12000
C 	C 	0.32134 0.15951 0.18487 -0.20900
C 	C 	0.37887 0.08520 0.20568 -0.17500
C 	C 	0.42724 0.06835 0.20997 0.11400
C 	C 	0.43459 0.01921 0.20433 -0.21900
C 	C 	0.46897 0.09803 0.22635 -0.06400
C 	C 	0.52352 0.09559 0.22966 -0.05000
C 	C 	0.55694 0.11955 0.26238 0.08000
C 	C 	0.55302 0.17234 0.25377 -0.19700
C 	C 	0.60390 0.09920 0.28768 -0.10900
C 	C 	0.62913 0.09072 0.26059 0.07500
C 	C 	0.67637 0.11829 0.27028 -0.15600
C 	C 	0.59949 0.08195 0.21460 -0.11000
C 	C 	0.54511 0.07877 0.20235 0.07800
C 	C 	0.52734 0.52084 0.19981 -0.19400
C 	C 	0.46056 0.12799 0.25201 0.08100
C 	C 	0.48365 0.11274 0.30137 -0.19500
C 	C 	0.40781 0.19077 0.25580 0.07200
C 	C 	0.38032 0.18078 0.28132 -0.08300
C 	C 	0.37716 0.69359 0.33036 -0.01000
C 	C 	0.41304 0.24862 0.31470 -0.03800
C 	C 	0.43714 0.25766 0.35887 -0.00500
C 	C 	0.45158 0.72956 0.41027 -0.02200
C 	C 	0.44628 0.69100 0.44016 -0.00800
C 	C 	0.41585 0.20908 0.44829 -0.04900
C 	C 	0.36898 0.67670 0.44807 0.00700
C 	C 	0.36446 0.63431 0.43254 -0.07200
C 	C 	0.40452 0.61723 0.42576 -0.03300
C 	C 	0.44608 0.64564 0.42951 0.04000
C 	C 	0.48533 0.63082 0.41540 -0.18400
C 	C 	0.43430 0.26294 0.28468 0.07200
C 	C 	0.45995 0.30861 0.28487 -0.19600
C 	C 	0.43227 0.23311 0.25543 -0.11300
H 	H 	0.32505 0.19731 0.17514 0.07400
H 	H 	0.29502 0.14539 0.15542 0.03600
H 	H 	0.30472 0.15768 0.20885 0.08200
H 	H 	0.41978 0.01723 0.16877 0.08300
H 	H 	0.47520 0.00743 0.22146 0.07100
H 	H 	0.40565 0.99128 0.54112 0.09600
H 	H 	0.55978 0.18535 0.28464 0.06900
H 	H 	0.51541 0.18661 0.22817 0.06900
H 	H 	0.58103 0.18611 0.24105 0.06200
H 	H 	0.66567 0.15475 0.25311 0.05500
H 	H 	0.19741 0.12080 0.30582 -0.00700
H 	H 	0.70310 0.10409 0.26018 0.03700
H 	H 	0.47346 0.07037 0.14901 0.07600
H 	H 	0.56164 0.49754 0.21078 0.06900
H 	H 	0.50241 0.50081 0.21309 0.06400
H 	H 	0.45385 0.09618 0.31064 0.06600
H 	H 	0.51403 0.08509 0.31293 0.06900
H 	H 	0.49900 0.14301 0.31839 0.07100
H 	H 	0.36333 0.62400 0.31574 0.05600
H 	H 	0.35788 0.68855 0.35184 0.04900
H 	H 	0.41856 0.24212 0.45995 0.03500
H 	H 	0.35042 0.19336 0.45800 0.04300
H 	H 	0.40160 0.58398 0.41441 0.03800
H 	H 	0.48232 0.59346 0.41153 0.06000
H 	H 	0.52395 0.63591 0.44046 0.07400
H 	H 	0.48039 0.65172 0.38346 0.07100
H 	H 	0.46958 0.31706 0.25622 0.06300
H 	H 	0.43347 0.33686 0.28255 0.06600
H 	H 	0.49504 0.30739 0.31571 0.06900
H 	H 	0.45141 0.24165 0.23399 0.05300
C 	C 	0.20500 0.22521 0.71942 0.30300
O 	O 	0.21737 0.56470 0.69493 -0.43100
Fe	Fe	0.66281 0.06902 0.77343 1.14000
Fe	Fe	0.19995 0.12473 0.70859 1.21800
O 	O 	0.24837 0.51898 0.76385 -0.43600
O 	O 	0.31150 0.07366 0.55896 -0.45500
O 	O 	0.31887 0.02549 0.51632 -0.42900
Fe	Fe	0.26928 0.06401 0.47005 1.25900
Fe	Fe	0.24220 0.06193 0.55200 1.22200
O 	O 	0.61621 0.07713 0.47530 -0.37300
O 	O 	0.67102 0.54808 0.55205 -0.41200
O 	O 	0.22125 0.05058 0.49420 -0.65700
C 	C 	0.24169 0.46090 0.59778 0.10300
C 	C 	0.23305 0.52399 0.72116 0.33900
C 	C 	0.19505 0.15602 0.49305 0.32800
C 	C 	0.34026 0.05282 0.54471 0.32100
C 	C 	0.61726 0.07578 0.66979 0.04300
C 	C 	0.62996 0.06860 0.52080 0.28200
O 	O 	0.26320 0.49397 0.58004 -0.11700
O 	O 	0.26513 0.49104 0.58092 -0.16800
O 	O 	0.22195 0.12910 0.53125 -0.43400
O 	O 	0.17274 0.14174 0.45521 -0.42100
O 	O 	0.63290 0.10150 0.70034 -0.15800
C 	C 	0.31113 0.12747 0.75273 0.31700
O 	O 	0.62527 0.09791 0.70525 -0.25000
O 	O 	0.31483 0.09114 0.78267 -0.41100
O 	O 	0.26773 0.14636 0.72133 -0.40500
O 	O 	0.21412 0.10485 0.76633 -0.61300
O 	O 	0.17626 0.18866 0.70776 -0.39000
O 	O 	0.25245 0.21777 0.74736 -0.24800
C 	C 	0.12745 0.32839 0.63151 -0.10200
C 	C 	0.14970 0.28292 0.65195 0.11100
C 	C 	0.14030 0.24435 0.62506 -0.21300
C 	C 	0.18557 0.27477 0.69692 -0.14600
C 	C 	0.20896 0.31502 0.71573 0.09800
C 	C 	0.25741 0.31123 0.75744 -0.20300
C 	C 	0.18971 0.36030 0.69184 -0.06000
C 	C 	0.22343 0.40071 0.69389 -0.06200
C 	C 	0.24457 0.40703 0.66279 0.08400
C 	C 	0.26530 0.36569 0.65216 -0.20000
C 	C 	0.25220 0.45229 0.64529 -0.11500
C 	C 	0.25709 0.48857 0.66943 0.12200
C 	C 	0.28849 0.52966 0.66415 -0.19800
C 	C 	0.23739 0.48308 0.70172 -0.16300
C 	C 	0.21900 0.43924 0.71296 0.10600
C 	C 	0.69454 0.43759 0.74430 -0.20400
C 	C 	0.14238 0.36540 0.65532 0.07600
C 	C 	0.11634 0.41344 0.63458 -0.19300
C 	C 	0.10474 0.34202 0.58308 0.06800
C 	C 	0.05335 0.33722 0.55655 -0.08300
C 	C 	0.53537 0.35142 0.51134 -0.01400
C 	C 	0.06808 0.36611 0.49166 -0.03600
C 	C 	0.06055 0.35239 0.45082 -0.01200
C 	C 	0.57945 0.32570 0.43987 -0.02300
C 	C 	0.60717 0.28181 0.45166 -0.00400
C 	C 	0.15325 0.27910 0.44704 -0.05000
C 	C 	0.68613 0.24205 0.46631 0.00700
C 	C 	0.67466 0.20341 0.49040 -0.07900
C 	C 	0.63036 0.20500 0.49685 -0.03100
C 	C 	0.59699 0.24415 0.47862 0.04000
C 	C 	0.55184 0.24468 0.48943 -0.18400
C 	C 	0.11821 0.37638 0.51881 0.07300
C 	C 	0.15610 0.39255 0.50040 -0.19500
C 	C 	0.13619 0.36292 0.56403 -0.11300
H 	H 	0.17672 0.22610 0.63220 0.06600
H 	H 	0.11521 0.21976 0.63378 0.07300
H 	H 	0.12269 0.25648 0.58926 0.07000
H 	H 	0.29017 0.30362 0.75033 0.08000
H 	H 	0.26413 0.34412 0.77137 0.07100
H 	H 	0.31069 0.27332 0.43354 0.08400
H 	H 	0.26531 0.37290 0.61908 0.06900
H 	H 	0.24368 0.33384 0.65316 0.07400
H 	H 	0.30527 0.35790 0.67664 0.07100
H 	H 	0.30401 0.54715 0.69348 0.08400
H 	H 	0.32194 0.51767 0.66010 0.06800
H 	H 	0.26614 0.55508 0.63494 0.01700
H 	H 	0.22539 0.43282 0.77896 0.08100
H 	H 	0.66662 0.46682 0.73630 0.05800
H 	H 	0.67381 0.40493 0.74457 0.06800
H 	H 	0.07539 0.41044 0.61343 0.06600
H 	H 	0.11807 0.43355 0.66015 0.06700
H 	H 	0.13448 0.43321 0.61433 0.07500
H 	H 	0.52860 0.32491 0.57163 0.04200
H 	H 	0.49694 0.34302 0.49090 0.02600
H 	H 	0.16290 0.30856 0.42831 0.03900
H 	H 	0.22195 0.23979 0.46352 0.03700
H 	H 	0.61954 0.17425 0.51317 0.04000
H 	H 	0.53719 0.20906 0.49190 0.06600
H 	H 	0.52051 0.26820 0.46421 0.07100
H 	H 	0.56332 0.25665 0.52132 0.06300
H 	H 	0.18499 0.41409 0.52200 0.06700
H 	H 	0.17584 0.36164 0.49800 0.06800
H 	H 	0.13678 0.41418 0.46736 0.06100
H 	H 	0.17561 0.36727 0.58445 0.05700
C 	C 	0.41905 0.14521 0.57481 -0.10700
C 	C 	0.37695 0.12988 0.54183 0.12800
C 	C 	0.32706 0.15832 0.52174 -0.21400
C 	C 	0.37984 0.08222 0.53835 -0.18200
C 	C 	0.42739 0.06337 0.54323 0.12100
C 	C 	0.43123 0.01580 0.53250 -0.23000
C 	C 	0.47116 0.08832 0.56558 -0.06800
C 	C 	0.52459 0.08829 0.56614 -0.05000
C 	C 	0.55634 0.11556 0.59620 0.08100
C 	C 	0.54691 0.16790 0.58409 -0.19700
C 	C 	0.60476 0.09870 0.62146 -0.11300
C 	C 	0.62963 0.09055 0.59417 0.08300
C 	C 	0.67471 0.12102 0.60226 -0.17300
C 	C 	0.60011 0.07898 0.54916 -0.11200
C 	C 	0.54632 0.07254 0.53831 0.07700
C 	C 	0.51274 0.54625 0.50574 -0.20400
C 	C 	0.46296 0.11633 0.59325 0.08200
C 	C 	0.49110 0.10475 0.64279 -0.19300
C 	C 	0.41214 0.18137 0.59748 0.07300
C 	C 	0.38235 0.17204 0.62098 -0.08400
C 	C 	0.37684 0.71912 0.63664 -0.00900
C 	C 	0.40251 0.24656 0.64508 -0.03800
C 	C 	0.42155 0.26171 0.68690 -0.00700
C 	C 	0.45073 0.74637 0.72170 -0.02300
C 	C 	0.43750 0.71061 0.74931 -0.01000
C 	C 	0.40751 0.21997 0.78139 -0.04900
C 	C 	0.35727 0.69862 0.75299 -0.00800
C 	C 	0.35538 0.65373 0.74269 -0.07000
C 	C 	0.39825 0.63475 0.74133 -0.03500
C 	C 	0.43933 0.66332 0.74378 0.03800
C 	C 	0.48447 0.64301 0.74067 -0.18200
C 	C 	0.42587 0.25923 0.61637 0.07000
C 	C 	0.44255 0.30820 0.60957 -0.19600
C 	C 	0.43162 0.22572 0.59310 -0.11600
H 	H 	0.33338 0.19582 0.51335 0.08100
H 	H 	0.30003 0.14527 0.49189 0.05500
H 	H 	0.30961 0.15691 0.54516 0.08600
H 	H 	0.42027 0.01849 0.49670 0.08400
H 	H 	0.46999 0.99983 0.55214 0.07700
H 	H 	0.41562 0.99549 0.88477 0.09000
H 	H 	0.54673 0.18212 0.61235 0.06400
H 	H 	0.50970 0.17806 0.55564 0.06900
H 	H 	0.57636 0.18402 0.57428 0.06100
H 	H 	0.66126 0.15753 0.58649 0.05700
H 	H 	0.19667 0.12110 0.63832 0.01300
H 	H 	0.70081 0.11017 0.58980 0.04800
H 	H 	0.47715 0.06657 0.48169 0.07300
H 	H 	0.52749 0.54966 0.48028 0.07500
H 	H 	0.51675 0.50875 0.52049 0.06700
H 	H 	0.46348 0.09601 0.65739 0.06300
H 	H 	0.51661 0.07321 0.65281 0.06300
H 	H 	0.51313 0.13469 0.65651 0.06500
H 	H 	0.35711 0.65428 0.61392 0.05200
H 	H 	0.36042 0.70988 0.66006 0.03800
H 	H 	0.40948 0.25368 0.79168 0.03800
H 	H 	0.34042 0.20520 0.78967 0.04400
H 	H 	0.39829 0.59909 0.73563 0.03500
H 	H 	0.51326 0.62933 0.77432 0.06800
H 	H 	0.50190 0.66950 0.72427 0.07000
H 	H 	0.47322 0.61368 0.72173 0.05900
H 	H 	0.45323 0.31425 0.58147 0.06300
H 	H 	0.41051 0.33313 0.60194 0.06800
H 	H 	0.47498 0.31562 0.63946 0.06500
H 	H 	0.45125 0.23388 0.57199 0.05200
C 	C 	0.22095 0.23140 0.04763 0.28500
O 	O 	0.22446 0.57392 0.01935 -0.42200
Fe	Fe	0.66649 0.08656 0.10822 1.19900
Fe	Fe	0.20747 0.12878 0.04090 1.23500
O 	O 	0.22982 0.52356 0.08037 -0.42300
O 	O 	0.30864 0.07356 0.89123 -0.45800
O 	O 	0.32039 0.02773 0.84898 -0.41600
Fe	Fe	0.26671 0.06537 0.80526 1.23700
Fe	Fe	0.23905 0.05877 0.88373 1.21100
O 	O 	0.62311 0.08931 0.81028 -0.37700
O 	O 	0.69399 0.56080 0.88637 -0.40600
O 	O 	0.21975 0.04091 0.82777 -0.65800
C 	C 	0.28945 0.46157 0.93994 0.10600
C 	C 	0.23013 0.53100 0.04131 0.34200
C 	C 	0.20246 0.14688 0.81752 0.19200
C 	C 	0.33992 0.05462 0.87823 0.31100
C 	C 	0.61991 0.08768 0.00316 0.04200
C 	C 	0.63031 0.07263 0.85362 0.27400
O 	O 	0.28045 0.49514 0.90457 -0.14000
O 	O 	0.28073 0.49388 0.90644 -0.14800
O 	O 	0.21500 0.12447 0.85790 -0.40000
O 	O 	0.19990 0.12487 0.78498 -0.23200
O 	O 	0.63927 0.11340 0.03321 -0.11000
C 	C 	0.31920 0.12102 0.08537 0.31400
O 	O 	0.62996 0.11177 0.03824 -0.27600
O 	O 	0.31980 0.08474 0.11437 -0.40700
O 	O 	0.27735 0.14303 0.05456 -0.40400
O 	O 	0.22008 0.10442 0.09586 -0.72900
O 	O 	0.19227 0.19393 0.04600 -0.37500
O 	O 	0.26945 0.22620 0.05801 -0.24100
C 	C 	0.13674 0.32892 0.95795 -0.09800
C 	C 	0.15972 0.28421 0.98059 0.10800
C 	C 	0.15064 0.24300 0.95651 -0.21000
C 	C 	0.19691 0.27920 0.02493 -0.13800
C 	C 	0.21944 0.32093 0.04105 0.08900
C 	C 	0.26817 0.31979 0.08218 -0.19900
C 	C 	0.19868 0.36512 0.01508 -0.05600
C 	C 	0.22996 0.40748 0.01630 -0.05900
C 	C 	0.25642 0.41360 0.98901 0.08000
C 	C 	0.27663 0.37144 0.97873 -0.20000
C 	C 	0.26710 0.45904 0.97290 -0.11500
C 	C 	0.26286 0.49682 0.99277 0.12000
C 	C 	0.29111 0.54020 0.98697 -0.19800
C 	C 	0.23827 0.49085 0.02211 -0.15500
C 	C 	0.22092 0.44604 0.03295 0.10300
C 	C 	0.69730 0.43841 0.06474 -0.20000
C 	C 	0.15084 0.36777 0.97945 0.07300
C 	C 	0.12242 0.41472 0.95712 -0.19300
C 	C 	0.11416 0.33986 0.90943 0.06900
C 	C 	0.06591 0.32606 0.88298 -0.08400
C 	C 	0.54924 0.33607 0.83783 -0.01200
C 	C 	0.07846 0.36015 0.81806 -0.03900
C 	C 	0.07599 0.34704 0.77858 -0.01000
C 	C 	0.58851 0.31694 0.76481 -0.01900
C 	C 	0.62171 0.27863 0.77033 -0.01300
C 	C 	0.17158 0.27422 0.80756 -0.04000
C 	C 	0.69800 0.23251 0.82182 -0.01900
C 	C 	0.67652 0.19319 0.80351 -0.02600
C 	C 	0.62858 0.19696 0.76792 -0.04400
C 	C 	0.60164 0.23961 0.75025 0.05400
C 	C 	0.54836 0.24028 0.71602 -0.18900
C 	C 	0.12368 0.37944 0.84466 0.07300
C 	C 	0.15680 0.40701 0.82609 -0.19700
C 	C 	0.14210 0.36725 0.88997 -0.11400
H 	H 	0.18749 0.22656 0.96235 0.06400
H 	H 	0.12930 0.21717 0.96909 0.06800
H 	H 	0.12970 0.25203 0.92045 0.07200
H 	H 	0.30105 0.32318 0.07343 0.07600
H 	H 	0.26750 0.34917 0.09923 0.06700
H 	H 	0.25547 0.28383 0.78337 0.08300
H 	H 	0.26607 0.37452 0.94301 0.06800
H 	H 	0.26298 0.33760 0.98859 0.07700
H 	H 	0.31875 0.36940 0.99646 0.06800
H 	H 	0.30035 0.56061 0.01366 0.08600
H 	H 	0.32827 0.53084 0.98768 0.05300
H 	H 	0.26897 0.56243 0.95533 0.01500
H 	H 	0.22068 0.43875 0.09727 0.07900
H 	H 	0.66594 0.46482 0.05508 0.07000
H 	H 	0.67965 0.40405 0.06503 0.06600
H 	H 	0.08267 0.41013 0.93382 0.06700
H 	H 	0.11964 0.43404 0.98155 0.06600
H 	H 	0.14182 0.43631 0.93892 0.07500
H 	H 	0.54635 0.30625 0.89905 0.04300
H 	H 	0.51452 0.32023 0.81837 0.02900
H 	H 	0.18726 0.30321 0.82474 0.03500
H 	H 	0.23510 0.22772 0.85125 0.03300
H 	H 	0.61167 0.16624 0.75393 0.03500
H 	H 	0.54325 0.21293 0.69532 0.06400
H 	H 	0.53795 0.27461 0.69442 0.06900
H 	H 	0.52377 0.23361 0.73355 0.07200
H 	H 	0.17433 0.43552 0.84515 0.06800
H 	H 	0.18756 0.38372 0.82804 0.06500
H 	H 	0.13401 0.42336 0.79150 0.06100
H 	H 	0.17890 0.37890 0.91034 0.05900
C 	C 	0.41790 0.15286 0.90672 -0.10500
C 	C 	0.37556 0.13339 0.87760 0.12400
C 	C 	0.32480 0.16025 0.85733 -0.21300
C 	C 	0.38097 0.08549 0.87535 -0.16400
C 	C 	0.42952 0.06924 0.87922 0.11100
C 	C 	0.43633 0.02118 0.87100 -0.21700
C 	C 	0.47191 0.09799 0.89749 -0.06400
C 	C 	0.52599 0.09815 0.89863 -0.04900
C 	C 	0.55843 0.12535 0.92877 0.08000
C 	C 	0.54962 0.17778 0.91672 -0.19700
C 	C 	0.60723 0.10856 0.95394 -0.10900
C 	C 	0.63149 0.09781 0.92654 0.07400
C 	C 	0.68063 0.12157 0.93492 -0.15600
C 	C 	0.60146 0.08728 0.88151 -0.10600
C 	C 	0.54728 0.08250 0.87054 0.07500
C 	C 	0.54672 0.52422 0.85346 -0.19300
C 	C 	0.46357 0.12678 0.92420 0.08100
C 	C 	0.49169 0.11514 0.97371 -0.19500
C 	C 	0.41180 0.19035 0.92867 0.07100
C 	C 	0.38276 0.18275 0.95301 -0.08200
C 	C 	0.37286 0.68233 0.97300 -0.01100
C 	C 	0.41832 0.25002 0.98658 -0.03900
C 	C 	0.44323 0.25829 0.03103 -0.00200
C 	C 	0.45550 0.70743 0.05785 -0.02400
C 	C 	0.45143 0.67315 0.09146 -0.00900
C 	C 	0.41733 0.21120 0.11753 -0.04900
C 	C 	0.37471 0.68124 0.10088 -0.00100
C 	C 	0.35401 0.64499 0.07680 -0.06900
C 	C 	0.38623 0.61648 0.06908 -0.03900
C 	C 	0.43632 0.62915 0.07870 0.03500
C 	C 	0.46997 0.59830 0.06970 -0.17500
C 	C 	0.44083 0.26239 0.95721 0.07300
C 	C 	0.46932 0.30651 0.95813 -0.19600
C 	C 	0.43802 0.23170 0.92844 -0.11400
H 	H 	0.32980 0.19825 0.85006 0.07800
H 	H 	0.29964 0.14855 0.82625 0.05900
H 	H 	0.30613 0.15640 0.88006 0.08000
H 	H 	0.42131 0.02126 0.83507 0.08200
H 	H 	0.47687 0.00909 0.88760 0.07000
H 	H 	0.41398 0.99446 0.21901 0.09000
H 	H 	0.55451 0.19280 0.94617 0.06700
H 	H 	0.51089 0.18829 0.89081 0.07200
H 	H 	0.57621 0.19295 0.90287 0.06700
H 	H 	0.67227 0.15634 0.91345 0.06100
H 	H 	0.19979 0.12824 0.96917 0.00300
H 	H 	0.70629 0.10139 0.92743 0.02900
H 	H 	0.47526 0.07603 0.81666 0.07300
H 	H 	0.58027 0.50307 0.85780 0.07000
H 	H 	0.52607 0.49982 0.86805 0.06500
H 	H 	0.46408 0.10440 0.98794 0.06500
H 	H 	0.51870 0.08469 0.98398 0.06700
H 	H 	0.51216 0.14574 0.98743 0.07000
H 	H 	0.37534 0.61510 0.95555 0.04700
H 	H 	0.35201 0.67011 0.99224 0.04200
H 	H 	0.41946 0.24457 0.12848 0.03800
H 	H 	0.34829 0.19733 0.12279 0.04000
H 	H 	0.37310 0.58461 0.05611 0.03400
H 	H 	0.46956 0.56171 0.08559 0.05200
H 	H 	0.50975 0.60954 0.08261 0.04500
H 	H 	0.45516 0.59902 0.03390 0.05600
H 	H 	0.47905 0.31419 0.92949 0.06500
H 	H 	0.44481 0.33616 0.95639 0.06800
H 	H 	0.50464 0.30352 0.98899 0.07000
H 	H 	0.45789 0.23885 0.90747 0.05300
C 	C 	0.21984 0.72518 0.37814 0.28400
O 	O 	0.22135 0.06021 0.36649 -0.43600
Fe	Fe	0.66253 0.58367 0.44646 1.20600
Fe	Fe	0.20494 0.62256 0.38096 1.23900
O 	O 	0.25058 0.01422 0.43590 -0.42500
O 	O 	0.28754 0.56252 0.21009 -0.44700
O 	O 	0.29738 0.54037 0.15475 -0.43200
Fe	Fe	0.23757 0.57412 0.11112 1.20800
Fe	Fe	0.21774 0.54785 0.20070 1.20700
O 	O 	0.60591 0.59901 0.14855 -0.39800
O 	O 	0.67287 0.04944 0.21302 -0.41900
O 	O 	0.19192 0.55521 0.13748 -0.66300
C 	C 	0.23887 0.96779 0.26425 0.09800
C 	C 	0.23781 0.01987 0.39314 0.33300
C 	C 	0.19715 0.65075 0.16433 0.29900
C 	C 	0.31767 0.55414 0.19204 0.34700
C 	C 	0.60941 0.58724 0.34039 0.03400
C 	C 	0.61607 0.57330 0.18888 0.28600
O 	O 	0.26337 0.99554 0.24488 -0.11400
O 	O 	0.26543 0.99221 0.24623 -0.17100
O 	O 	0.20783 0.61564 0.19804 -0.40700
O 	O 	0.18052 0.64496 0.12312 -0.47300
O 	O 	0.63252 0.61025 0.37196 -0.08000
C 	C 	0.31676 0.61038 0.42312 0.31800
O 	O 	0.62248 0.60981 0.37688 -0.30500
O 	O 	0.31685 0.57495 0.45265 -0.40200
O 	O 	0.27517 0.63346 0.39330 -0.40100
O 	O 	0.21841 0.59990 0.43551 -0.74100
O 	O 	0.19405 0.68843 0.38578 -0.37600
O 	O 	0.26110 0.71920 0.37251 -0.24200
C 	C 	0.13247 0.82708 0.29945 -0.10000
C 	C 	0.15378 0.78118 0.31876 0.11200
C 	C 	0.14071 0.74283 0.29122 -0.21200
C 	C 	0.19474 0.77295 0.36141 -0.14000
C 	C 	0.21956 0.81241 0.38009 0.09100
C 	C 	0.27011 0.80769 0.41985 -0.19900
C 	C 	0.19868 0.85789 0.35860 -0.05800
C 	C 	0.23145 0.89895 0.36153 -0.06200
C 	C 	0.25092 0.90834 0.32920 0.08500
C 	C 	0.27193 0.86946 0.31591 -0.20200
C 	C 	0.25729 0.95451 0.31310 -0.11300
C 	C 	0.26215 0.98868 0.33938 0.13000
C 	C 	0.28925 0.03247 0.33280 -0.21700
C 	C 	0.24421 0.98016 0.37302 -0.15900
C 	C 	0.22731 0.93530 0.38316 0.10500
C 	C 	0.70342 0.92664 0.41513 -0.20300
C 	C 	0.14988 0.86359 0.32367 0.07500
C 	C 	0.12362 0.91173 0.30443 -0.19300
C 	C 	0.10984 0.84144 0.25103 0.07000
C 	C 	0.05852 0.83672 0.22407 -0.08500
C 	C 	0.53990 0.85085 0.17671 -0.01400
C 	C 	0.07468 0.86489 0.15973 -0.03800
C 	C 	0.06865 0.84974 0.11990 -0.00900
C 	C 	0.58889 0.82214 0.11021 -0.02100
C 	C 	0.61659 0.77800 0.12492 -0.00700
C 	C 	0.16516 0.77518 0.12535 -0.04900
C 	C 	0.69689 0.73622 0.14714 0.00200
C 	C 	0.68059 0.69773 0.16781 -0.07200
C 	C 	0.63360 0.70111 0.16955 -0.04300
C 	C 	0.60130 0.74061 0.14832 0.04200
C 	C 	0.55092 0.74144 0.15108 -0.18400
C 	C 	0.12437 0.87585 0.18722 0.07500
C 	C 	0.16274 0.89250 0.16938 -0.19600
C 	C 	0.14165 0.86247 0.23238 -0.11300
H 	H 	0.17412 0.73494 0.28517 0.07400
H 	H 	0.13112 0.71114 0.30881 0.06900
H 	H 	0.10801 0.75211 0.25901 0.06900
H 	H 	0.30094 0.81816 0.40944 0.07400
H 	H 	0.26945 0.83089 0.44261 0.06800
H 	H 	0.26861 0.78493 0.11430 0.08000
H 	H 	0.26948 0.87906 0.28209 0.07200
H 	H 	0.25220 0.83642 0.31715 0.07700
H 	H 	0.31267 0.86279 0.33879 0.07200
H 	H 	0.30835 0.04708 0.36367 0.08500
H 	H 	0.31954 0.02490 0.32265 0.06600
H 	H 	0.26230 0.05872 0.30717 0.04600
H 	H 	0.23403 0.92661 0.44961 0.08200
H 	H 	0.67386 0.95434 0.40727 0.06100
H 	H 	0.68457 0.89290 0.41509 0.06700
H 	H 	0.08239 0.90884 0.28409 0.06800
H 	H 	0.12643 0.93106 0.33079 0.06700
H 	H 	0.14061 0.93219 0.28358 0.07500
H 	H 	0.53107 0.82419 0.23611 0.04300
H 	H 	0.50188 0.84211 0.15562 0.02700
H 	H 	0.17817 0.80518 0.11003 0.03900
H 	H 	0.23293 0.73293 0.14392 0.03000
H 	H 	0.61914 0.67097 0.18304 0.05100
H 	H 	0.53769 0.70544 0.15533 0.06600
H 	H 	0.52136 0.76152 0.12074 0.06900
H 	H 	0.55511 0.75712 0.17988 0.06400
H 	H 	0.19096 0.91438 0.19113 0.06900
H 	H 	0.18332 0.86192 0.16741 0.06900
H 	H 	0.14370 0.91396 0.13625 0.06300
H 	H 	0.18087 0.86693 0.25307 0.05900
C 	C 	0.41069 0.62338 0.26225 -0.11000
C 	C 	0.36808 0.61859 0.22435 0.13500
C 	C 	0.32353 0.65364 0.20504 -0.21200
C 	C 	0.36696 0.57887 0.20594 -0.17700
C 	C 	0.41419 0.56530 0.20574 0.11700
C 	C 	0.41272 0.55996 0.16258 -0.23300
C 	C 	0.46117 0.57585 0.24084 -0.06900
C 	C 	0.51450 0.58467 0.24013 -0.05100
C 	C 	0.54165 0.61749 0.26680 0.08100
C 	C 	0.52153 0.66704 0.25557 -0.19700
C 	C 	0.59299 0.61012 0.29093 -0.10500
C 	C 	0.61736 0.60429 0.26224 0.06800
C 	C 	0.66538 0.63029 0.27120 -0.18200
C 	C 	0.59068 0.58365 0.22147 -0.11400
C 	C 	0.54205 0.56513 0.21836 0.07300
C 	C 	0.51320 0.05676 0.16330 -0.20300
C 	C 	0.45329 0.59289 0.27506 0.08400
C 	C 	0.48966 0.58096 0.32284 -0.19800
C 	C 	0.40981 0.66096 0.28605 0.07400
C 	C 	0.38138 0.65637 0.31088 -0.08100
C 	C 	0.38106 0.21075 0.30915 -0.01000
C 	C 	0.40677 0.73268 0.32970 -0.03700
C 	C 	0.43560 0.74550 0.37193 -0.00200
C 	C 	0.44712 0.24003 0.39611 -0.02200
C 	C 	0.44374 0.20002 0.42567 -0.01000
C 	C 	0.41205 0.70244 0.45618 -0.04900
C 	C 	0.37534 0.18141 0.44602 -0.00100
C 	C 	0.36509 0.14212 0.42502 -0.06800
C 	C 	0.40088 0.12672 0.41223 -0.03800
C 	C 	0.44101 0.15560 0.41288 0.04200
C 	C 	0.47757 0.14021 0.39653 -0.18800
C 	C 	0.42592 0.74140 0.29792 0.07400
C 	C 	0.44591 0.78829 0.28860 -0.19700
C 	C 	0.42647 0.70532 0.27547 -0.11800
H 	H 	0.33710 0.68966 0.20220 0.07400
H 	H 	0.29733 0.64870 0.17123 0.06200
H 	H 	0.30282 0.65029 0.22631 0.08900
H 	H 	0.43281 0.58984 0.15334 0.08700
H 	H 	0.42950 0.52649 0.16324 0.07700
H 	H 	0.41837 0.51052 0.51229 0.08300
H 	H 	0.52218 0.67834 0.28547 0.07100
H 	H 	0.48270 0.67071 0.22859 0.07000
H 	H 	0.54546 0.69027 0.24343 0.06300
H 	H 	0.65589 0.66691 0.25486 0.06500
H 	H 	0.19035 0.62956 0.30733 0.00600
H 	H 	0.69062 0.61422 0.26026 0.08200
H 	H 	0.50991 0.52868 0.16340 0.06200
H 	H 	0.52736 0.06428 0.13749 0.07600
H 	H 	0.51501 0.01828 0.17334 0.06700
H 	H 	0.46790 0.56824 0.34234 0.06500
H 	H 	0.51675 0.55206 0.32789 0.06500
H 	H 	0.51048 0.61199 0.33524 0.07200
H 	H 	0.36188 0.14784 0.28263 0.05000
H 	H 	0.36306 0.20000 0.33124 0.03700
H 	H 	0.41202 0.73665 0.46507 0.03700
H 	H 	0.33745 0.69191 0.45080 0.03700
H 	H 	0.39583 0.09428 0.39923 0.03400
H 	H 	0.50486 0.11337 0.42181 0.06700
H 	H 	0.49948 0.16940 0.38861 0.07200
H 	H 	0.45595 0.12475 0.36682 0.06300
H 	H 	0.45338 0.79145 0.25880 0.06300
H 	H 	0.41699 0.81597 0.28257 0.06800
H 	H 	0.48154 0.79378 0.31708 0.07000
H 	H 	0.43889 0.71229 0.24946 0.05300
C 	C 	0.20711 0.72452 0.71969 0.31100
O 	O 	0.22206 0.06442 0.70185 -0.45100
Fe	Fe	0.66824 0.58608 0.77509 1.20500
Fe	Fe	0.19845 0.62655 0.70222 1.23900
O 	O 	0.25199 0.01727 0.76972 -0.44600
O 	O 	0.30815 0.57461 0.56510 -0.44600
O 	O 	0.31641 0.52402 0.52464 -0.41800
Fe	Fe	0.26733 0.56207 0.47710 1.26400
Fe	Fe	0.23870 0.56096 0.55785 1.22500
O 	O 	0.61363 0.57967 0.47949 -0.37300
O 	O 	0.67498 0.05021 0.54822 -0.42200
O 	O 	0.21843 0.55222 0.50019 -0.66200
C 	C 	0.24065 0.96887 0.59891 0.09900
C 	C 	0.23895 0.02368 0.72728 0.33500
C 	C 	0.19435 0.65646 0.50040 0.32400
C 	C 	0.33743 0.55313 0.55161 0.30700
C 	C 	0.61097 0.58008 0.67189 0.04500
C 	C 	0.62650 0.56838 0.52467 0.27800
O 	O 	0.26544 0.99571 0.57938 -0.11300
O 	O 	0.26767 0.99234 0.58081 -0.17300
O 	O 	0.21700 0.62839 0.53900 -0.42600
O 	O 	0.17483 0.64308 0.46220 -0.42500
O 	O 	0.62982 0.60687 0.70050 -0.11500
C 	C 	0.30949 0.62724 0.73668 0.30300
O 	O 	0.62204 0.60563 0.70611 -0.27500
O 	O 	0.31470 0.58850 0.76497 -0.40400
O 	O 	0.26495 0.64813 0.70954 -0.40400
O 	O 	0.22010 0.60617 0.75900 -0.73200
O 	O 	0.17724 0.69062 0.70290 -0.38700
O 	O 	0.24774 0.71306 0.75609 -0.25700
C 	C 	0.13720 0.82994 0.63157 -0.10100
C 	C 	0.16008 0.78451 0.65099 0.11300
C 	C 	0.15275 0.74759 0.62263 -0.21400
C 	C 	0.19428 0.77518 0.69647 -0.14700
C 	C 	0.21990 0.81501 0.71502 0.09400
C 	C 	0.26918 0.81088 0.75618 -0.20500
C 	C 	0.19942 0.86069 0.69269 -0.05900
C 	C 	0.23189 0.90216 0.69562 -0.06200
C 	C 	0.25242 0.91096 0.66409 0.08400
C 	C 	0.27318 0.87162 0.65106 -0.19900
C 	C 	0.25864 0.95694 0.64762 -0.11300
C 	C 	0.26246 0.99196 0.67296 0.12900
C 	C 	0.28824 0.03628 0.66532 -0.21700
C 	C 	0.24450 0.98390 0.70655 -0.16000
C 	C 	0.22738 0.93894 0.71675 0.10200
C 	C 	0.70177 0.93267 0.74794 -0.19700
C 	C 	0.15168 0.86603 0.65649 0.07700
C 	C 	0.12477 0.91387 0.63701 -0.19300
C 	C 	0.11358 0.84490 0.58327 0.07000
C 	C 	0.06130 0.84361 0.55757 -0.08500
C 	C 	0.54256 0.85879 0.50933 -0.01300
C 	C 	0.07487 0.87306 0.49213 -0.03900
C 	C 	0.06605 0.85831 0.45140 -0.01000
C 	C 	0.58617 0.82957 0.43978 -0.02300
C 	C 	0.61272 0.78485 0.45361 -0.00200
C 	C 	0.15613 0.77962 0.44998 -0.05100
C 	C 	0.69042 0.74115 0.47037 0.01200
C 	C 	0.67694 0.70449 0.49534 -0.08000
C 	C 	0.63133 0.70851 0.49924 -0.03100
C 	C 	0.60011 0.74882 0.48030 0.03900
C 	C 	0.55468 0.75201 0.49032 -0.18400
C 	C 	0.12591 0.88111 0.51886 0.07500
C 	C 	0.16316 0.89715 0.49963 -0.19600
C 	C 	0.14493 0.86518 0.56384 -0.11400
H 	H 	0.18833 0.72604 0.63388 0.06900
H 	H 	0.12235 0.72551 0.62492 0.07400
H 	H 	0.14307 0.76209 0.58781 0.07300
H 	H 	0.29289 0.84150 0.75595 0.07100
H 	H 	0.26128 0.80882 0.78550 0.07200
H 	H 	0.27911 0.77171 0.43860 0.07200
H 	H 	0.27175 0.88110 0.61756 0.07100
H 	H 	0.25263 0.83898 0.65164 0.07300
H 	H 	0.31362 0.86417 0.67445 0.07000
H 	H 	0.30695 0.05183 0.69573 0.08400
H 	H 	0.31873 0.02907 0.65529 0.06400
H 	H 	0.26046 0.06164 0.63924 0.04600
H 	H 	0.23374 0.92955 0.78312 0.08000
H 	H 	0.67311 0.96105 0.74053 0.04700
H 	H 	0.68155 0.89960 0.74681 0.06500
H 	H 	0.08362 0.91044 0.61685 0.06700
H 	H 	0.12732 0.93333 0.66321 0.06600
H 	H 	0.14149 0.93446 0.61599 0.07500
H 	H 	0.53663 0.83068 0.56968 0.04300
H 	H 	0.50367 0.85144 0.48904 0.02600
H 	H 	0.16641 0.80774 0.43049 0.04100
H 	H 	0.22205 0.73662 0.46494 0.03000
H 	H 	0.61687 0.67837 0.51290 0.03800
H 	H 	0.53848 0.71715 0.49282 0.06500
H 	H 	0.52439 0.77627 0.46465 0.07100
H 	H 	0.56674 0.76372 0.52245 0.06400
H 	H 	0.19370 0.91688 0.52190 0.06900
H 	H 	0.18085 0.86631 0.49491 0.06800
H 	H 	0.14366 0.92051 0.46757 0.06200
H 	H 	0.18493 0.86717 0.58365 0.05800
C 	C 	0.40940 0.65556 0.56457 -0.10100
C 	C 	0.36795 0.63223 0.53885 0.11800
C 	C 	0.31591 0.65693 0.51722 -0.20900
C 	C 	0.37545 0.58321 0.54293 -0.17400
C 	C 	0.42427 0.56594 0.54881 0.11400
C 	C 	0.43288 0.51566 0.54708 -0.21300
C 	C 	0.46522 0.59667 0.56315 -0.06200
C 	C 	0.51974 0.59348 0.56654 -0.05200
C 	C 	0.55239 0.61970 0.59728 0.08500
C 	C 	0.54782 0.67230 0.58481 -0.20200
C 	C 	0.59958 0.60033 0.62323 -0.12200
C 	C 	0.62533 0.59157 0.59679 0.08200
C 	C 	0.67001 0.62216 0.60322 -0.15900
C 	C 	0.59625 0.57961 0.55225 -0.11200
C 	C 	0.54223 0.57429 0.54083 0.08000
C 	C 	0.51536 0.04925 0.49981 -0.20200
C 	C 	0.45558 0.63003 0.58555 0.08000
C 	C 	0.47943 0.62120 0.63547 -0.19500
C 	C 	0.40116 0.69482 0.58350 0.07100
C 	C 	0.37487 0.68713 0.61017 -0.08200
C 	C 	0.37568 0.20538 0.64304 -0.01100
C 	C 	0.40922 0.75651 0.63987 -0.03800
C 	C 	0.43852 0.76418 0.68407 -0.00300
C 	C 	0.43285 0.24796 0.72522 -0.02200
C 	C 	0.43578 0.21004 0.75927 -0.00700
C 	C 	0.39896 0.72572 0.75883 -0.04900
C 	C 	0.36664 0.19261 0.77896 0.00300
C 	C 	0.35781 0.15228 0.75951 -0.07100
C 	C 	0.39480 0.13574 0.74860 -0.03300
C 	C 	0.43538 0.16413 0.74974 0.03800
C 	C 	0.47419 0.14744 0.73610 -0.18300
C 	C 	0.42736 0.76931 0.60750 0.07400
C 	C 	0.44849 0.81657 0.60244 -0.19700
C 	C 	0.42424 0.73741 0.57962 -0.11400
H 	H 	0.31849 0.69436 0.50519 0.07200
H 	H 	0.29020 0.64065 0.48911 0.03300
H 	H 	0.29936 0.65684 0.54105 0.08100
H 	H 	0.47370 0.50478 0.56503 0.07000
H 	H 	0.41275 0.49228 0.56329 0.08500
H 	H 	0.38991 0.52913 0.80459 0.09800
H 	H 	0.55353 0.68808 0.61406 0.06800
H 	H 	0.51031 0.68520 0.55811 0.07100
H 	H 	0.57615 0.68444 0.57196 0.06200
H 	H 	0.65769 0.65541 0.58047 0.06100
H 	H 	0.18872 0.62928 0.63853 -0.02100
H 	H 	0.70025 0.60544 0.59913 0.05100
H 	H 	0.47238 0.55785 0.48971 0.07600
H 	H 	0.53288 0.05107 0.47640 0.07400
H 	H 	0.51347 0.01156 0.51125 0.06500
H 	H 	0.44981 0.60967 0.64715 0.06800
H 	H 	0.50868 0.59224 0.64957 0.07000
H 	H 	0.49623 0.65337 0.64846 0.07200
H 	H 	0.36583 0.13826 0.62356 0.04900
H 	H 	0.35559 0.19593 0.66363 0.03700
H 	H 	0.39674 0.76156 0.76344 0.03500
H 	H 	0.32595 0.71376 0.75547 0.04500
H 	H 	0.39067 0.10241 0.73718 0.03300
H 	H 	0.47043 0.10982 0.73308 0.05600
H 	H 	0.51296 0.15189 0.76128 0.06600
H 	H 	0.46985 0.16728 0.70400 0.06600
H 	H 	0.45931 0.82184 0.57443 0.06400
H 	H 	0.41853 0.84365 0.59534 0.06800
H 	H 	0.48197 0.82109 0.63304 0.07000
H 	H 	0.44154 0.74458 0.55665 0.05300
C 	C 	0.21356 0.72905 0.05110 0.30900
O 	O 	0.22242 0.06633 0.03280 -0.43000
Fe	Fe	0.63533 0.59820 0.10101 1.16800
Fe	Fe	0.20642 0.63306 0.03253 1.20200
O 	O 	0.24978 0.01870 0.10181 -0.42500
O 	O 	0.32405 0.57704 0.88388 -0.44600
O 	O 	0.32500 0.52941 0.83844 -0.42000
Fe	Fe	0.27246 0.56897 0.79627 1.25900
Fe	Fe	0.25716 0.56340 0.88446 1.22600
O 	O 	0.62686 0.57512 0.81440 -0.37200
O 	O 	0.67035 0.04512 0.87891 -0.41900
O 	O 	0.23055 0.55403 0.82624 -0.66200
C 	C 	0.24131 0.96849 0.93476 0.09700
C 	C 	0.23705 0.02520 0.05904 0.32900
C 	C 	0.20259 0.65613 0.82940 0.32200
C 	C 	0.34940 0.55678 0.86577 0.31100
C 	C 	0.60821 0.59735 0.99975 -0.06100
C 	C 	0.64526 0.57120 0.86016 0.27400
O 	O 	0.26599 0.99475 0.91511 -0.11200
O 	O 	0.26861 0.99156 0.91672 -0.17600
O 	O 	0.23545 0.63060 0.86662 -0.42400
O 	O 	0.17688 0.64135 0.79204 -0.41500
O 	O 	0.64667 0.60475 0.03724 -0.00100
C 	C 	0.30091 0.63403 0.06476 0.29900
O 	O 	0.64559 0.60349 0.04124 -0.09400
O 	O 	0.29063 0.60085 0.09155 -0.44700
O 	O 	0.26480 0.65812 0.03041 -0.42800
O 	O 	0.17524 0.59950 0.06548 -0.60500
O 	O 	0.18385 0.69364 0.03878 -0.41500
O 	O 	0.26203 0.72058 0.07591 -0.26500
C 	C 	0.13607 0.83137 0.96343 -0.10000
C 	C 	0.15923 0.78616 0.98339 0.11100
C 	C 	0.15180 0.74826 0.95558 -0.20800
C 	C 	0.19444 0.77812 0.02868 -0.14800
C 	C 	0.21680 0.81805 0.04822 0.09600
C 	C 	0.26624 0.81498 0.08917 -0.20400
C 	C 	0.19632 0.86301 0.02511 -0.05900
C 	C 	0.22940 0.90358 0.02883 -0.06200
C 	C 	0.25227 0.91098 0.99899 0.08600
C 	C 	0.27147 0.87109 0.98534 -0.20200
C 	C 	0.26031 0.95639 0.98317 -0.11500
C 	C 	0.26378 0.99166 0.00797 0.13000
C 	C 	0.29289 0.03447 0.00267 -0.21800
C 	C 	0.24258 0.98502 0.03926 -0.15900
C 	C 	0.22375 0.94090 0.04877 0.10500
C 	C 	0.70044 0.93456 0.08162 -0.20300
C 	C 	0.14979 0.86808 0.98770 0.07500
C 	C 	0.12321 0.91597 0.96730 -0.19300
C 	C 	0.11102 0.84485 0.91509 0.06900
C 	C 	0.06062 0.83477 0.89027 -0.08400
C 	C 	0.53970 0.84996 0.84764 -0.01400
C 	C 	0.07035 0.86544 0.82338 -0.03800
C 	C 	0.06367 0.85016 0.78348 -0.01000
C 	C 	0.58003 0.82775 0.77390 -0.02200
C 	C 	0.60942 0.78481 0.78604 -0.00300
C 	C 	0.16263 0.78007 0.78982 -0.04700
C 	C 	0.69220 0.74885 0.80579 0.00700
C 	C 	0.67870 0.70763 0.82504 -0.07600
C 	C 	0.63162 0.70638 0.82731 -0.03200
C 	C 	0.59781 0.74517 0.80992 0.04000
C 	C 	0.55165 0.74366 0.81956 -0.18200
C 	C 	0.11897 0.88084 0.84855 0.07100
C 	C 	0.15383 0.90057 0.82783 -0.19300
C 	C 	0.13915 0.86930 0.89417 -0.11200
H 	H 	0.18877 0.72981 0.96481 0.07000
H 	H 	0.12458 0.72316 0.96068 0.06600
H 	H 	0.13787 0.76161 0.91992 0.07200
H 	H 	0.29874 0.81284 0.08030 0.07900
H 	H 	0.27012 0.84607 0.10536 0.07000
H 	H 	0.29373 0.78116 0.75929 0.08200
H 	H 	0.26781 0.87988 0.95111 0.07200
H 	H 	0.25148 0.83841 0.98722 0.07600
H 	H 	0.31245 0.86405 0.00735 0.07300
H 	H 	0.31367 0.04680 0.03458 0.08500
H 	H 	0.32200 0.02666 0.99126 0.06800
H 	H 	0.26698 0.06267 0.97882 0.05400
H 	H 	0.22630 0.93266 0.11387 0.08100
H 	H 	0.67162 0.96318 0.07299 0.06000
H 	H 	0.68022 0.90147 0.08090 0.06700
H 	H 	0.08258 0.91277 0.94530 0.06800
H 	H 	0.12365 0.93522 0.99299 0.06700
H 	H 	0.14194 0.93672 0.94805 0.07500
H 	H 	0.53782 0.82084 0.90942 0.04400
H 	H 	0.50175 0.83927 0.82858 0.02600
H 	H 	0.17512 0.81165 0.77613 0.03700
H 	H 	0.23492 0.74328 0.81392 0.03800
H 	H 	0.61957 0.67394 0.84012 0.04100
H 	H 	0.53663 0.70799 0.81956 0.06500
H 	H 	0.52080 0.76828 0.79524 0.07100
H 	H 	0.56248 0.75334 0.85239 0.06200
H 	H 	0.18050 0.92481 0.84775 0.06500
H 	H 	0.17633 0.87156 0.82571 0.06600
H 	H 	0.13167 0.92033 0.79434 0.05400
H 	H 	0.17792 0.87757 0.91344 0.05700
C 	C 	0.42615 0.63456 0.90500 -0.10700
C 	C 	0.38801 0.63128 0.86379 0.13100
C 	C 	0.34161 0.66428 0.84262 -0.21900
C 	C 	0.38562 0.58653 0.85357 -0.18300
C 	C 	0.43214 0.56681 0.85794 0.12000
C 	C 	0.42967 0.53425 0.82733 -0.22000
C 	C 	0.47768 0.57942 0.89240 -0.07000
C 	C 	0.53175 0.58709 0.89446 -0.04200
C 	C 	0.55738 0.62064 0.92105 0.06300
C 	C 	0.53622 0.66979 0.91309 -0.19000
C 	C 	0.60621 0.60982 0.95187 -0.07900
C 	C 	0.63718 0.60026 0.92943 0.07300
C 	C 	0.67339 0.63882 0.93040 -0.18100
C 	C 	0.61399 0.57970 0.88797 -0.10400
C 	C 	0.56277 0.56480 0.87762 0.07200
C 	C 	0.51481 0.06161 0.83084 -0.19800
C 	C 	0.46664 0.60056 0.92290 0.08400
C 	C 	0.49173 0.58230 0.97125 -0.19400
C 	C 	0.41688 0.66605 0.93033 0.07300
C 	C 	0.38726 0.65083 0.95318 -0.08000
C 	C 	0.38424 0.21370 0.98036 -0.01400
C 	C 	0.39610 0.72531 0.97649 -0.03800
C 	C 	0.43340 0.72614 0.02034 0.00000
C 	C 	0.45329 0.24072 0.06833 -0.02200
C 	C 	0.44735 0.20110 0.09697 -0.00800
C 	C 	0.42477 0.69321 0.11076 -0.05100
C 	C 	0.37584 0.18426 0.11371 0.00800
C 	C 	0.36713 0.14425 0.09391 -0.07100
C 	C 	0.40344 0.12864 0.08174 -0.03500
C 	C 	0.44480 0.15660 0.08425 0.03900
C 	C 	0.48228 0.14164 0.06846 -0.18500
C 	C 	0.41039 0.74458 0.94324 0.07400
C 	C 	0.40866 0.79657 0.93064 -0.19700
C 	C 	0.42410 0.71413 0.92162 -0.11700
H 	H 	0.35304 0.70017 0.83475 0.08000
H 	H 	0.31365 0.65319 0.81216 0.06500
H 	H 	0.32229 0.66498 0.86456 0.08800
H 	H 	0.44817 0.54967 0.80610 0.07500
H 	H 	0.44548 0.49919 0.84604 0.07500
H 	H 	0.37342 0.56087 0.13721 0.10800
H 	H 	0.52999 0.67651 0.94177 0.06300
H 	H 	0.50037 0.67654 0.88263 0.06900
H 	H 	0.56353 0.69486 0.90823 0.05800
H 	H 	0.65133 0.67227 0.91379 0.05800
H 	H 	0.19265 0.64125 0.96546 -0.00300
H 	H 	0.69770 0.63372 0.91382 0.07200
H 	H 	0.52554 0.53667 0.81775 0.06600
H 	H 	0.52897 0.06978 0.80500 0.06700
H 	H 	0.51601 0.02305 0.83990 0.06300
H 	H 	0.46288 0.56450 0.98105 0.06000
H 	H 	0.52189 0.55539 0.97889 0.06100
H 	H 	0.50748 0.61120 0.99018 0.05100
H 	H 	0.36259 0.15079 0.95394 0.04800
H 	H 	0.36539 0.20444 0.00201 0.04100
H 	H 	0.43753 0.72514 0.12403 0.03600
H 	H 	0.35214 0.70170 0.11061 0.04400
H 	H 	0.39821 0.09643 0.06835 0.03300
H 	H 	0.47917 0.10407 0.06521 0.05800
H 	H 	0.52153 0.14705 0.09228 0.07200
H 	H 	0.47543 0.16240 0.03609 0.07000
H 	H 	0.40902 0.80653 0.89781 0.06400
H 	H 	0.37255 0.81131 0.92853 0.06800
H 	H 	0.44114 0.81159 0.95578 0.06800
H 	H 	0.43804 0.72770 0.89718 0.05200
C 	C 	0.71998 0.21917 0.38923 0.31500
O 	O 	0.71321 0.55790 0.37356 -0.43500
Fe	Fe	0.16604 0.08089 0.44248 1.19900
Fe	Fe	0.70386 0.12273 0.37189 1.23900
O 	O 	0.74080 0.51141 0.44289 -0.42800
O 	O 	0.81070 0.07474 0.22713 -0.44900
O 	O 	0.81839 0.02781 0.18364 -0.42300
Fe	Fe	0.76998 0.06780 0.13745 1.26000
Fe	Fe	0.74033 0.06302 0.21840 1.22000
O 	O 	0.11675 0.08087 0.14186 -0.37200
O 	O 	0.14997 0.53966 0.20199 -0.41200
O 	O 	0.72057 0.05431 0.16001 -0.65600
C 	C 	0.75690 0.48478 0.28314 0.07000
C 	C 	0.72369 0.51634 0.39991 0.33600
C 	C 	0.69714 0.15901 0.16126 0.32800
C 	C 	0.83981 0.05447 0.21271 0.31300
C 	C 	0.11720 0.07841 0.33789 0.04200
C 	C 	0.12962 0.07008 0.18716 0.27900
O 	O 	0.74634 0.53041 0.26670 -0.11700
O 	O 	0.74760 0.52954 0.26968 -0.16900
O 	O 	0.72101 0.13055 0.19922 -0.43400
O 	O 	0.67564 0.14640 0.12269 -0.42600
O 	O 	0.13658 0.10446 0.36741 -0.10500
C 	C 	0.81610 0.11890 0.41594 0.30900
O 	O 	0.12722 0.10340 0.37239 -0.28100
O 	O 	0.81746 0.08265 0.44536 -0.40400
O 	O 	0.77354 0.13950 0.38439 -0.40200
O 	O 	0.71789 0.10130 0.42757 -0.72900
O 	O 	0.68661 0.18739 0.37310 -0.39200
O 	O 	0.76205 0.20567 0.42346 -0.26100
C 	C 	0.65497 0.32584 0.30448 -0.10500
C 	C 	0.67651 0.28023 0.32206 0.11900
C 	C 	0.66526 0.24382 0.29258 -0.21400
C 	C 	0.71026 0.26959 0.36739 -0.15400
C 	C 	0.73697 0.30795 0.38799 0.09700
C 	C 	0.78529 0.30121 0.43011 -0.20600
C 	C 	0.71683 0.35409 0.36793 -0.06100
C 	C 	0.74789 0.39657 0.37684 -0.06700
C 	C 	0.76536 0.41588 0.34426 0.08200
C 	C 	0.79692 0.38686 0.33118 -0.19800
C 	C 	0.74983 0.46240 0.32285 -0.11100
C 	C 	0.71922 0.48535 0.33631 0.16000
C 	C 	0.67327 0.51296 0.30353 -0.25000
C 	C 	0.72609 0.47547 0.37969 -0.18500
C 	C 	0.73706 0.42811 0.40006 0.11800
C 	C 	0.23137 0.41092 0.44216 -0.21100
C 	C 	0.66894 0.35985 0.33149 0.08200
C 	C 	0.63741 0.40486 0.31532 -0.20000
C 	C 	0.63073 0.34289 0.25656 0.06900
C 	C 	0.57835 0.34161 0.23155 -0.08400
C 	C 	0.05771 0.35791 0.18753 -0.01600
C 	C 	0.58962 0.37538 0.16601 -0.03700
C 	C 	0.57898 0.36309 0.12400 -0.01100
C 	C 	0.09499 0.33294 0.11324 -0.02300
C 	C 	0.11898 0.28739 0.12367 -0.00200
C 	C 	0.66383 0.28386 0.11703 -0.05200
C 	C 	0.19431 0.24233 0.13668 0.01200
C 	C 	0.18029 0.20503 0.16041 -0.08300
C 	C 	0.13625 0.20943 0.16672 -0.02900
C 	C 	0.10564 0.25035 0.14908 0.03800
C 	C 	0.05986 0.25311 0.15875 -0.18200
C 	C 	0.64101 0.38294 0.19226 0.06600
C 	C 	0.67696 0.40112 0.17219 -0.18600
C 	C 	0.66128 0.36507 0.23708 -0.11200
H 	H 	0.69894 0.21989 0.30313 0.06600
H 	H 	0.63317 0.22397 0.29453 0.07300
H 	H 	0.65559 0.25893 0.25780 0.07300
H 	H 	0.80841 0.33267 0.43373 0.07000
H 	H 	0.77615 0.29405 0.45899 0.07200
H 	H 	0.77591 0.28901 0.10601 0.07500
H 	H 	0.77990 0.38811 0.29511 0.06200
H 	H 	0.80121 0.34989 0.34751 0.07100
H 	H 	0.83536 0.40123 0.34120 0.06800
H 	H 	0.68754 0.54708 0.29871 0.10700
H 	H 	0.65685 0.49931 0.27222 0.09100
H 	H 	0.64309 0.51366 0.31542 0.08200
H 	H 	0.76831 0.41131 0.47039 0.08400
H 	H 	0.20379 0.43392 0.44532 0.07600
H 	H 	0.21605 0.37547 0.44182 0.06900
H 	H 	0.59639 0.39756 0.30000 0.06700
H 	H 	0.64242 0.42386 0.34238 0.06900
H 	H 	0.64663 0.42594 0.28970 0.07100
H 	H 	0.05406 0.32594 0.24792 0.04200
H 	H 	0.01840 0.35138 0.16771 0.02400
H 	H 	0.67566 0.31273 0.09935 0.04000
H 	H 	0.72830 0.23948 0.13044 0.02900
H 	H 	0.12313 0.17950 0.18210 0.03800
H 	H 	0.04260 0.21850 0.15922 0.06400
H 	H 	0.03032 0.27859 0.13373 0.06900
H 	H 	0.07178 0.26297 0.19164 0.06300
H 	H 	0.70769 0.42041 0.19485 0.04500
H 	H 	0.69436 0.37138 0.16561 0.06400
H 	H 	0.65659 0.42551 0.14089 0.05600
H 	H 	0.70152 0.36690 0.25672 0.05400
C 	C 	0.91623 0.15238 0.23575 -0.10200
C 	C 	0.87391 0.13291 0.20661 0.12000
C 	C 	0.82296 0.15961 0.18616 -0.20900
C 	C 	0.87917 0.08456 0.20638 -0.17500
C 	C 	0.92733 0.06712 0.21074 0.11400
C 	C 	0.93358 0.01835 0.20366 -0.21800
C 	C 	0.96970 0.09578 0.22842 -0.05800
C 	C 	0.02407 0.09387 0.23116 -0.05600
C 	C 	0.05729 0.11841 0.26347 0.08100
C 	C 	0.05249 0.17120 0.25448 -0.19700
C 	C 	0.10456 0.09871 0.28870 -0.10900
C 	C 	0.12965 0.09024 0.26150 0.07600
C 	C 	0.17652 0.11828 0.27078 -0.15800
C 	C 	0.09997 0.08094 0.21569 -0.11100
C 	C 	0.04569 0.07717 0.20377 0.08000
C 	C 	0.02168 0.52722 0.20255 -0.20500
C 	C 	0.96142 0.12537 0.25449 0.07800
C 	C 	0.98516 0.11062 0.30392 -0.18200
C 	C 	0.90931 0.18884 0.25810 0.07200
C 	C 	0.88158 0.17918 0.28341 -0.08200
C 	C 	0.87688 0.70135 0.33541 -0.01100
C 	C 	0.91207 0.24865 0.31459 -0.03900
C 	C 	0.93642 0.25812 0.35858 -0.00400
C 	C 	0.95982 0.72453 0.41564 -0.02100
C 	C 	0.94800 0.68650 0.44213 -0.00700
C 	C 	0.91413 0.21002 0.44705 -0.05000
C 	C 	0.86705 0.67588 0.44445 0.00500
C 	C 	0.86261 0.63288 0.43003 -0.07100
C 	C 	0.90369 0.61412 0.42572 -0.03300
C 	C 	0.94655 0.64126 0.43096 0.04000
C 	C 	0.98614 0.62533 0.41785 -0.18000
C 	C 	0.93334 0.26247 0.28450 0.07300
C 	C 	0.95715 0.30894 0.28299 -0.19600
C 	C 	0.93256 0.23166 0.25646 -0.11400
H 	H 	0.82754 0.19734 0.17692 0.07400
H 	H 	0.79652 0.14610 0.15638 0.03600
H 	H 	0.80603 0.15789 0.20993 0.08200
H 	H 	0.91953 0.01767 0.16791 0.08300
H 	H 	0.97382 0.00548 0.22132 0.07200
H 	H 	0.89734 0.99420 0.52750 0.10100
H 	H 	0.05867 0.18440 0.28512 0.06800
H 	H 	0.01475 0.18484 0.22862 0.06800
H 	H 	0.08056 0.18543 0.24199 0.06200
H 	H 	0.16530 0.15477 0.25385 0.05500
H 	H 	0.69680 0.12109 0.30528 -0.00800
H 	H 	0.20297 0.10460 0.26009 0.04000
H 	H 	0.97445 0.06883 0.15006 0.07900
H 	H 	0.04413 0.49731 0.22765 0.06700
H 	H 	0.98138 0.52314 0.19635 0.07600
H 	H 	0.95535 0.09593 0.31415 0.06400
H 	H 	0.01444 0.08196 0.31501 0.06300
H 	H 	0.00213 0.14078 0.32053 0.06500
H 	H 	0.86245 0.63036 0.32498 0.05600
H 	H 	0.85621 0.69914 0.35568 0.05000
H 	H 	0.91631 0.24327 0.45826 0.03500
H 	H 	0.84813 0.19450 0.45572 0.04300
H 	H 	0.90065 0.58053 0.41495 0.03900
H 	H 	0.98225 0.58805 0.41379 0.06000
H 	H 	0.02464 0.62973 0.44339 0.07200
H 	H 	0.98233 0.64632 0.38628 0.07100
H 	H 	0.96745 0.31642 0.25466 0.06400
H 	H 	0.92919 0.33672 0.27886 0.06600
H 	H 	0.99160 0.30976 0.31395 0.07000
H 	H 	0.95146 0.23999 0.23480 0.05400
C 	C 	0.70521 0.22765 0.72041 0.30000
O 	O 	0.71306 0.56936 0.69072 -0.42800
Fe	Fe	0.16383 0.06741 0.77404 1.14100
Fe	Fe	0.70001 0.12705 0.70905 1.21800
O 	O 	0.74425 0.52444 0.75957 -0.43800
O 	O 	0.81051 0.07506 0.55744 -0.45500
O 	O 	0.81716 0.02609 0.51530 -0.43100
Fe	Fe	0.76790 0.06461 0.46898 1.25900
Fe	Fe	0.74125 0.06344 0.55089 1.22200
O 	O 	0.11748 0.07596 0.47609 -0.37400
O 	O 	0.17180 0.54566 0.55320 -0.41400
O 	O 	0.71994 0.05158 0.49322 -0.65800
C 	C 	0.74011 0.46208 0.59651 0.10300
C 	C 	0.72901 0.52877 0.71711 0.34200
C 	C 	0.69388 0.15730 0.49163 0.32900
C 	C 	0.83900 0.05372 0.54324 0.32100
C 	C 	0.11698 0.07358 0.67008 0.04200
C 	C 	0.13112 0.06727 0.52153 0.28300
O 	O 	0.76130 0.49455 0.57788 -0.11800
O 	O 	0.76311 0.49161 0.57870 -0.16800
O 	O 	0.72106 0.13057 0.52986 -0.43500
O 	O 	0.67135 0.14280 0.45392 -0.42100
O 	O 	0.13311 0.09916 0.70071 -0.15600
C 	C 	0.81096 0.12854 0.75432 0.31700
O 	O 	0.12545 0.09570 0.70567 -0.25200
O 	O 	0.81386 0.09120 0.78297 -0.41200
O 	O 	0.76803 0.14838 0.72299 -0.40600
O 	O 	0.71351 0.10623 0.76647 -0.61600
O 	O 	0.67645 0.19100 0.70882 -0.38800
O 	O 	0.75268 0.22025 0.74839 -0.24700
C 	C 	0.62775 0.33062 0.63205 -0.10100
C 	C 	0.65004 0.28522 0.65270 0.11100
C 	C 	0.64063 0.24647 0.62597 -0.21200
C 	C 	0.68587 0.27728 0.69766 -0.14400
C 	C 	0.70933 0.31777 0.71615 0.09700
C 	C 	0.75791 0.31416 0.75770 -0.20200
C 	C 	0.68991 0.36305 0.69208 -0.05900
C 	C 	0.72333 0.40381 0.69374 -0.06300
C 	C 	0.74459 0.40971 0.66274 0.08500
C 	C 	0.76611 0.36814 0.65308 -0.20000
C 	C 	0.75103 0.45483 0.64404 -0.11600
C 	C 	0.75445 0.49207 0.66676 0.12300
C 	C 	0.78501 0.53349 0.66059 -0.19800
C 	C 	0.73436 0.48727 0.69872 -0.16300
C 	C 	0.71767 0.44304 0.71152 0.10600
C 	C 	0.19513 0.43366 0.74525 -0.20400
C 	C 	0.64252 0.36784 0.65561 0.07700
C 	C 	0.61625 0.41576 0.63453 -0.19400
C 	C 	0.60516 0.34396 0.58362 0.06900
C 	C 	0.55366 0.33958 0.55712 -0.08500
C 	C 	0.03498 0.34929 0.51078 -0.02100
C 	C 	0.56861 0.36768 0.49220 -0.03900
C 	C 	0.56060 0.35410 0.45120 -0.00900
C 	C 	0.07991 0.32397 0.43992 -0.02200
C 	C 	0.10802 0.28022 0.45225 -0.00400
C 	C 	0.65212 0.28058 0.44602 -0.05000
C 	C 	0.18740 0.24068 0.46768 0.00700
C 	C 	0.17587 0.20212 0.49182 -0.07900
C 	C 	0.13135 0.20367 0.49793 -0.03100
C 	C 	0.09773 0.24262 0.47921 0.04000
C 	C 	0.05203 0.24283 0.48930 -0.18400
C 	C 	0.61894 0.37746 0.51932 0.07500
C 	C 	0.65691 0.39303 0.50085 -0.19600
C 	C 	0.63686 0.36421 0.56456 -0.11400
H 	H 	0.67702 0.22806 0.63328 0.06500
H 	H 	0.61543 0.22205 0.63471 0.07300
H 	H 	0.62311 0.25843 0.59012 0.07000
H 	H 	0.79052 0.30617 0.75055 0.08000
H 	H 	0.76483 0.34725 0.77133 0.07100
H 	H 	0.81060 0.27330 0.43061 0.08300
H 	H 	0.76682 0.37489 0.62025 0.06900
H 	H 	0.74454 0.33626 0.65407 0.07400
H 	H 	0.80590 0.36066 0.67805 0.07100
H 	H 	0.80004 0.55181 0.68941 0.08400
H 	H 	0.81876 0.52175 0.65685 0.06600
H 	H 	0.76214 0.55807 0.63092 0.01400
H 	H 	0.72520 0.43700 0.77780 0.08100
H 	H 	0.16734 0.46307 0.73704 0.05700
H 	H 	0.17414 0.40111 0.74520 0.06900
H 	H 	0.57538 0.41257 0.61325 0.06700
H 	H 	0.61757 0.43599 0.65988 0.06700
H 	H 	0.63446 0.43550 0.61433 0.07600
H 	H 	0.02852 0.32195 0.57102 0.03900
H 	H 	0.99669 0.34056 0.49033 0.03100
H 	H 	0.66175 0.31009 0.42732 0.03900
H 	H 	0.72059 0.24125 0.46205 0.03800
H 	H 	0.12044 0.17292 0.51417 0.04000
H 	H 	0.03730 0.20719 0.49118 0.06500
H 	H 	0.02098 0.26656 0.46404 0.07000
H 	H 	0.06286 0.25437 0.52128 0.06200
H 	H 	0.68620 0.41429 0.52242 0.06800
H 	H 	0.67615 0.36185 0.49832 0.06800
H 	H 	0.63770 0.41479 0.46787 0.06200
H 	H 	0.67639 0.36821 0.58498 0.05800
C 	C 	0.91990 0.14365 0.57465 -0.10600
C 	C 	0.87734 0.12995 0.54098 0.12800
C 	C 	0.82819 0.15947 0.52144 -0.21400
C 	C 	0.87875 0.08257 0.53633 -0.18200
C 	C 	0.92572 0.06309 0.54040 0.12100
C 	C 	0.92739 0.01743 0.52552 -0.23100
C 	C 	0.97057 0.08615 0.56434 -0.06200
C 	C 	0.02446 0.08594 0.56548 -0.05500
C 	C 	0.05598 0.11312 0.59595 0.08100
C 	C 	0.04634 0.16547 0.58408 -0.19700
C 	C 	0.10448 0.09649 0.62165 -0.11300
C 	C 	0.12988 0.08883 0.59465 0.08300
C 	C 	0.17489 0.11946 0.60311 -0.17200
C 	C 	0.10089 0.07725 0.54961 -0.11400
C 	C 	0.04719 0.07009 0.53833 0.07900
C 	C 	0.01458 0.54341 0.50740 -0.21000
C 	C 	0.96280 0.11340 0.59276 0.07900
C 	C 	0.99035 0.10019 0.64216 -0.18100
C 	C 	0.91393 0.17947 0.59804 0.07300
C 	C 	0.88403 0.17017 0.62141 -0.08500
C 	C 	0.86607 0.71960 0.62718 -0.00900
C 	C 	0.90478 0.24428 0.64613 -0.03700
C 	C 	0.92362 0.25954 0.68785 -0.00700
C 	C 	0.93409 0.75916 0.70720 -0.02200
C 	C 	0.92713 0.72268 0.73818 -0.00900
C 	C 	0.90867 0.21983 0.78220 -0.04900
C 	C 	0.85064 0.70732 0.74773 -0.00700
C 	C 	0.84803 0.66315 0.73556 -0.07200
C 	C 	0.88939 0.64616 0.73055 -0.03400
C 	C 	0.92958 0.67565 0.73228 0.03600
C 	C 	0.97450 0.65684 0.72786 -0.17500
C 	C 	0.92799 0.25714 0.61736 0.07200
C 	C 	0.94402 0.30632 0.61045 -0.19700
C 	C 	0.93343 0.22386 0.59374 -0.11500
H 	H 	0.83553 0.19680 0.51351 0.08000
H 	H 	0.80060 0.14706 0.49146 0.05900
H 	H 	0.81077 0.15825 0.54490 0.08600
H 	H 	0.92128 0.02387 0.49058 0.08300
H 	H 	0.96356 0.99762 0.54726 0.07800
H 	H 	0.90813 0.99372 0.87764 0.09400
H 	H 	0.04621 0.17943 0.61250 0.06300
H 	H 	0.00909 0.17565 0.55567 0.06800
H 	H 	0.07560 0.18178 0.57413 0.06100
H 	H 	0.16139 0.15595 0.58733 0.05700
H 	H 	0.69684 0.12264 0.63743 0.01700
H 	H 	0.20128 0.10871 0.59091 0.04900
H 	H 	0.98126 0.06522 0.47889 0.07600
H 	H 	0.03024 0.54582 0.48260 0.07500
H 	H 	0.01794 0.50608 0.52250 0.06700
H 	H 	0.96232 0.08922 0.65581 0.06100
H 	H 	0.01678 0.06947 0.65154 0.05800
H 	H 	0.01127 0.13006 0.65713 0.06000
H 	H 	0.85822 0.65011 0.61340 0.05200
H 	H 	0.84860 0.71143 0.64993 0.03800
H 	H 	0.91119 0.25389 0.79193 0.03900
H 	H 	0.84114 0.20687 0.79042 0.04300
H 	H 	0.88895 0.61136 0.72279 0.03400
H 	H 	0.00615 0.64761 0.76100 0.06100
H 	H 	0.98731 0.68289 0.70723 0.06900
H 	H 	0.96510 0.62457 0.71306 0.05800
H 	H 	0.95725 0.31193 0.58391 0.06400
H 	H 	0.91078 0.33069 0.60034 0.06800
H 	H 	0.97440 0.31478 0.64116 0.06700
H 	H 	0.95267 0.23225 0.57234 0.05300
C 	C 	0.72362 0.23273 0.04794 0.28400
O 	O 	0.72272 0.57589 0.02033 -0.42600
Fe	Fe	0.16596 0.08524 0.10854 1.19900
Fe	Fe	0.70890 0.13001 0.04114 1.23400
O 	O 	0.73087 0.52531 0.08217 -0.41600
O 	O 	0.80742 0.07313 0.89091 -0.45800
O 	O 	0.81816 0.02714 0.84835 -0.41700
Fe	Fe	0.76532 0.06584 0.80508 1.23800
Fe	Fe	0.73758 0.05909 0.88323 1.21100
O 	O 	0.12384 0.08710 0.81100 -0.37600
O 	O 	0.19327 0.55068 0.88746 -0.41300
O 	O 	0.71803 0.04163 0.82713 -0.65900
C 	C 	0.78614 0.46821 0.93548 0.10700
C 	C 	0.72929 0.53294 0.04224 0.34000
C 	C 	0.70319 0.14782 0.81797 0.18500
C 	C 	0.83831 0.05363 0.87784 0.31100
C 	C 	0.11899 0.08616 0.00319 0.04200
C 	C 	0.13157 0.07087 0.85459 0.27300
O 	O 	0.78022 0.50316 0.90153 -0.14200
O 	O 	0.78012 0.50205 0.90371 -0.14700
O 	O 	0.71455 0.12507 0.85801 -0.39800
O 	O 	0.70051 0.12577 0.78534 -0.22000
O 	O 	0.13821 0.11168 0.03336 -0.11200
C 	C 	0.82057 0.12121 0.08619 0.31500
O 	O 	0.12905 0.11012 0.03841 -0.27400
O 	O 	0.82065 0.08509 0.11513 -0.40700
O 	O 	0.77903 0.14358 0.05523 -0.40400
O 	O 	0.72100 0.10572 0.09605 -0.72800
O 	O 	0.69435 0.19557 0.04603 -0.37400
O 	O 	0.77225 0.22688 0.05925 -0.24000
C 	C 	0.64031 0.33019 0.95764 -0.09800
C 	C 	0.66351 0.28560 0.98035 0.10800
C 	C 	0.65515 0.24440 0.95633 -0.21000
C 	C 	0.70041 0.28079 0.02473 -0.13700
C 	C 	0.72312 0.32269 0.04056 0.08900
C 	C 	0.77098 0.32153 0.08237 -0.19900
C 	C 	0.70257 0.36694 0.01428 -0.05600
C 	C 	0.73301 0.41020 0.01606 -0.06000
C 	C 	0.75842 0.41854 0.98788 0.07800
C 	C 	0.78093 0.37763 0.97801 -0.19900
C 	C 	0.76525 0.46489 0.97003 -0.11500
C 	C 	0.75754 0.50218 0.98916 0.12600
C 	C 	0.77671 0.54952 0.97943 -0.21400
C 	C 	0.73707 0.49360 0.02161 -0.15800
C 	C 	0.72319 0.44766 0.03359 0.10300
C 	C 	0.19306 0.43888 0.06267 -0.19900
C 	C 	0.65466 0.36928 0.97879 0.07300
C 	C 	0.62574 0.41599 0.95664 -0.19300
C 	C 	0.61655 0.34068 0.90915 0.06900
C 	C 	0.56803 0.32665 0.88365 -0.08400
C 	C 	0.04844 0.33560 0.83726 -0.01200
C 	C 	0.57829 0.36060 0.81761 -0.03800
C 	C 	0.57456 0.34707 0.77790 -0.00900
C 	C 	0.09078 0.31756 0.76540 -0.02000
C 	C 	0.12410 0.27931 0.77101 -0.01200
C 	C 	0.67039 0.27515 0.80534 -0.03900
C 	C 	0.19825 0.23110 0.82346 -0.01900
C 	C 	0.17675 0.19276 0.80332 -0.02900
C 	C 	0.12974 0.19809 0.76648 -0.04200
C 	C 	0.10436 0.24156 0.74891 0.05200
C 	C 	0.05330 0.24544 0.71084 -0.18600
C 	C 	0.62388 0.38003 0.84337 0.07300
C 	C 	0.65593 0.40778 0.82376 -0.19600
C 	C 	0.64359 0.36796 0.88875 -0.11300
H 	H 	0.69229 0.22843 0.96231 0.06500
H 	H 	0.63418 0.21815 0.96888 0.06700
H 	H 	0.63420 0.25332 0.92025 0.07200
H 	H 	0.80455 0.32505 0.07459 0.07500
H 	H 	0.76946 0.35080 0.09923 0.06600
H 	H 	0.75601 0.28705 0.78386 0.08300
H 	H 	0.76661 0.37843 0.94211 0.06800
H 	H 	0.77314 0.34299 0.99233 0.07600
H 	H 	0.82293 0.38000 0.99213 0.06700
H 	H 	0.80325 0.56084 0.01036 0.08500
H 	H 	0.79631 0.55124 0.95801 0.02300
H 	H 	0.74489 0.57482 0.96201 0.08000
H 	H 	0.72569 0.43914 0.09892 0.07800
H 	H 	0.16293 0.46676 0.05219 0.07100
H 	H 	0.17338 0.40557 0.06227 0.06600
H 	H 	0.58580 0.41107 0.93394 0.06700
H 	H 	0.62356 0.43531 0.98132 0.06700
H 	H 	0.64441 0.43763 0.93782 0.07400
H 	H 	0.04352 0.30565 0.89762 0.04200
H 	H 	0.01400 0.31986 0.81714 0.02800
H 	H 	0.68631 0.30503 0.82102 0.03500
H 	H 	0.73561 0.23029 0.84855 0.03300
H 	H 	0.11268 0.16808 0.75122 0.03700
H 	H 	0.04686 0.21556 0.69270 0.06300
H 	H 	0.04982 0.27813 0.68769 0.06700
H 	H 	0.02462 0.24622 0.72405 0.06800
H 	H 	0.67404 0.43623 0.84273 0.06600
H 	H 	0.68631 0.38465 0.82485 0.06500
H 	H 	0.63218 0.42422 0.78940 0.06100
H 	H 	0.68067 0.37966 0.90847 0.05800
C 	C 	0.91976 0.14812 0.90991 -0.10400
C 	C 	0.87685 0.13102 0.87927 0.12400
C 	C 	0.82717 0.15963 0.85930 -0.21200
C 	C 	0.88035 0.08340 0.87549 -0.16400
C 	C 	0.92831 0.06600 0.87896 0.11000
C 	C 	0.93271 0.01874 0.86808 -0.21800
C 	C 	0.97211 0.09271 0.89913 -0.05800
C 	C 	0.02600 0.09387 0.89936 -0.05400
C 	C 	0.05750 0.12263 0.92835 0.08200
C 	C 	0.04659 0.17479 0.91517 -0.19800
C 	C 	0.10671 0.10728 0.95402 -0.11000
C 	C 	0.13153 0.09685 0.92694 0.07500
C 	C 	0.17971 0.12219 0.93478 -0.15800
C 	C 	0.10210 0.08484 0.88235 -0.10600
C 	C 	0.04834 0.07754 0.87215 0.07600
C 	C 	0.04781 0.52009 0.84930 -0.19500
C 	C 	0.96445 0.12057 0.92695 0.07800
C 	C 	0.99369 0.10873 0.97628 -0.18200
C 	C 	0.91468 0.18540 0.93243 0.07100
C 	C 	0.88558 0.17815 0.95670 -0.08200
C 	C 	0.88982 0.56627 0.99360 -0.02700
C 	C 	0.91915 0.24714 0.98799 -0.03800
C 	C 	0.94408 0.25658 0.03204 -0.00100
C 	C 	0.98435 0.59718 0.08260 -0.04100
C 	C 	0.95664 0.60431 0.10718 0.00400
C 	C 	0.91955 0.21044 0.11928 -0.05000
C 	C 	0.88627 0.66246 0.07991 0.00300
C 	C 	0.85269 0.62609 0.07564 -0.08600
C 	C 	0.87178 0.57976 0.09294 -0.02300
C 	C 	0.92286 0.56782 0.10878 0.03000
C 	C 	0.93413 0.51656 0.11034 -0.17400
C 	C 	0.94145 0.25900 0.95843 0.07200
C 	C 	0.96759 0.30428 0.95727 -0.19000
C 	C 	0.93964 0.22732 0.93079 -0.11300
H 	H 	0.83393 0.19735 0.85282 0.07700
H 	H 	0.80135 0.14910 0.82782 0.06000
H 	H 	0.80832 0.15622 0.88191 0.08000
H 	H 	0.92074 0.02149 0.83214 0.08200
H 	H 	0.97194 0.00363 0.88695 0.07200
H 	H 	0.91165 0.99358 0.21686 0.09100
H 	H 	0.05013 0.19021 0.94407 0.06600
H 	H 	0.00770 0.18373 0.88889 0.07100
H 	H 	0.07302 0.19082 0.90150 0.06700
H 	H 	0.17003 0.15713 0.91356 0.06100
H 	H 	0.70046 0.12799 0.96920 0.00300
H 	H 	0.20572 0.10335 0.92661 0.03200
H 	H 	0.97890 0.06781 0.81714 0.07400
H 	H 	0.08098 0.49713 0.85579 0.07100
H 	H 	0.02337 0.49780 0.86157 0.06500
H 	H 	0.96668 0.09899 0.99136 0.06300
H 	H 	0.01963 0.07763 0.98571 0.06100
H 	H 	0.01542 0.13892 0.98977 0.06500
H 	H 	0.89761 0.53804 0.94318 0.05200
H 	H 	0.88698 0.53200 0.01022 0.02900
H 	H 	0.92181 0.24381 0.13023 0.03900
H 	H 	0.85023 0.19703 0.12418 0.04000
H 	H 	0.84583 0.55155 0.09140 0.05400
H 	H 	0.92872 0.49471 0.13794 0.06100
H 	H 	0.97234 0.50953 0.11233 0.05900
H 	H 	0.90678 0.50427 0.08013 0.06100
H 	H 	0.97891 0.31044 0.92950 0.06500
H 	H 	0.94077 0.33339 0.95251 0.06700
H 	H 	0.00174 0.30429 0.98863 0.06600
H 	H 	0.95880 0.23446 0.90927 0.05400
C 	C 	0.71734 0.72508 0.37504 0.28400
O 	O 	0.72051 0.06034 0.36570 -0.43600
Fe	Fe	0.16449 0.58313 0.44843 1.20700
Fe	Fe	0.70253 0.62236 0.37855 1.23900
O 	O 	0.74916 0.01456 0.43510 -0.42500
O 	O 	0.78723 0.56360 0.21247 -0.45000
O 	O 	0.80056 0.54741 0.15655 -0.42100
Fe	Fe	0.73682 0.57664 0.11282 1.21500
Fe	Fe	0.71786 0.54836 0.20183 1.21100
O 	O 	0.10574 0.59954 0.14785 -0.38700
O 	O 	0.17342 0.04865 0.21389 -0.41900
O 	O 	0.69243 0.55589 0.13917 -0.67200
C 	C 	0.73809 0.96865 0.26384 0.09800
C 	C 	0.73685 0.02003 0.39243 0.33300
C 	C 	0.69616 0.65151 0.16544 0.29900
C 	C 	0.81876 0.55918 0.19490 0.34500
C 	C 	0.11324 0.58732 0.34271 0.03200
C 	C 	0.11526 0.57435 0.18866 0.27400
O 	O 	0.76263 0.99609 0.24432 -0.11300
O 	O 	0.76469 0.99273 0.24565 -0.17100
O 	O 	0.70691 0.61630 0.19915 -0.40600
O 	O 	0.67957 0.64569 0.12433 -0.47400
O 	O 	0.13512 0.61019 0.37445 -0.07200
C 	C 	0.81446 0.60948 0.42029 0.31600
O 	O 	0.12464 0.60953 0.37916 -0.31400
O 	O 	0.81423 0.57378 0.44946 -0.40000
O 	O 	0.77295 0.63316 0.39092 -0.39900
O 	O 	0.71630 0.60006 0.43326 -0.73900
O 	O 	0.69172 0.68840 0.38308 -0.37600
O 	O 	0.75789 0.71896 0.36838 -0.24300
C 	C 	0.63044 0.82806 0.29813 -0.10000
C 	C 	0.65067 0.78181 0.31717 0.11200
C 	C 	0.63442 0.74310 0.28997 -0.21200
C 	C 	0.69267 0.77310 0.35922 -0.14000
C 	C 	0.71849 0.81226 0.37795 0.09100
C 	C 	0.76941 0.80693 0.41736 -0.19800
C 	C 	0.69789 0.85803 0.35718 -0.05800
C 	C 	0.73094 0.89903 0.36061 -0.06300
C 	C 	0.75059 0.90867 0.32841 0.08500
C 	C 	0.77142 0.87001 0.31474 -0.20200
C 	C 	0.75713 0.95490 0.31266 -0.11300
C 	C 	0.76201 0.98885 0.33914 0.12900
C 	C 	0.78958 0.03249 0.33308 -0.21700
C 	C 	0.74372 0.98024 0.37252 -0.16000
C 	C 	0.72682 0.93528 0.38243 0.10500
C 	C 	0.20393 0.92681 0.41595 -0.20300
C 	C 	0.64888 0.86432 0.32254 0.07500
C 	C 	0.62315 0.91272 0.30371 -0.19300
C 	C 	0.60830 0.84275 0.24974 0.07000
C 	C 	0.55690 0.83900 0.22240 -0.08500
C 	C 	0.04103 0.84823 0.17832 -0.01400
C 	C 	0.57410 0.86703 0.15856 -0.03800
C 	C 	0.56847 0.85168 0.11891 -0.00900
C 	C 	0.08886 0.82046 0.11074 -0.02200
C 	C 	0.11684 0.77653 0.12500 -0.00700
C 	C 	0.66502 0.77606 0.12562 -0.04800
C 	C 	0.19732 0.73546 0.14640 0.00100
C 	C 	0.18157 0.69674 0.16712 -0.07300
C 	C 	0.13505 0.69974 0.16976 -0.04300
C 	C 	0.10209 0.73879 0.14850 0.03900
C 	C 	0.05160 0.73866 0.15126 -0.18000
C 	C 	0.62384 0.87738 0.18647 0.07500
C 	C 	0.66262 0.89388 0.16906 -0.19600
C 	C 	0.64068 0.86343 0.23153 -0.11300
H 	H 	0.66709 0.73246 0.28412 0.07400
H 	H 	0.62243 0.71296 0.30756 0.07200
H 	H 	0.60220 0.75335 0.25766 0.07000
H 	H 	0.79990 0.81825 0.40677 0.07300
H 	H 	0.76906 0.82918 0.44095 0.06700
H 	H 	0.77123 0.78537 0.11615 0.07900
H 	H 	0.76870 0.87988 0.28085 0.07200
H 	H 	0.75176 0.83692 0.31590 0.07700
H 	H 	0.81223 0.86331 0.33742 0.07200
H 	H 	0.80895 0.04650 0.36425 0.08500
H 	H 	0.81968 0.02495 0.32270 0.06700
H 	H 	0.76292 0.05922 0.30785 0.04800
H 	H 	0.73348 0.92651 0.44880 0.08200
H 	H 	0.17446 0.95458 0.40813 0.06000
H 	H 	0.18496 0.89312 0.41598 0.06700
H 	H 	0.58187 0.91028 0.28329 0.06800
H 	H 	0.62615 0.93180 0.33027 0.06700
H 	H 	0.64035 0.93318 0.28303 0.07500
H 	H 	0.03313 0.82155 0.23812 0.04100
H 	H 	0.00310 0.83895 0.15754 0.02500
H 	H 	0.67838 0.80575 0.11024 0.03900
H 	H 	0.73263 0.73346 0.14484 0.02800
H 	H 	0.12143 0.66962 0.18399 0.05100
H 	H 	0.03877 0.70241 0.15520 0.06100
H 	H 	0.02173 0.75847 0.12092 0.06300
H 	H 	0.05552 0.75394 0.18024 0.06200
H 	H 	0.69116 0.91514 0.19129 0.06900
H 	H 	0.68275 0.86325 0.16666 0.06800
H 	H 	0.64395 0.91592 0.13619 0.06400
H 	H 	0.67996 0.86725 0.25249 0.05900
C 	C 	0.91172 0.62258 0.27458 -0.10300
C 	C 	0.86689 0.61742 0.23837 0.12700
C 	C 	0.82340 0.65416 0.21867 -0.20700
C 	C 	0.86833 0.58344 0.21440 -0.16400
C 	C 	0.91392 0.58572 0.20685 0.10400
C 	C 	0.91262 0.63127 0.17811 -0.21400
C 	C 	0.96177 0.58241 0.24539 -0.05300
C 	C 	0.01532 0.59079 0.24400 -0.06400
C 	C 	0.04545 0.62094 0.27205 0.08900
C 	C 	0.02760 0.66977 0.26838 -0.21100
C 	C 	0.09643 0.61112 0.29376 -0.10900
C 	C 	0.11890 0.60491 0.26364 0.06800
C 	C 	0.16717 0.63026 0.27164 -0.18600
C 	C 	0.09017 0.58610 0.22216 -0.11000
C 	C 	0.03996 0.57124 0.21963 0.07700
C 	C 	0.01401 0.05469 0.16498 -0.21000
C 	C 	0.95580 0.59518 0.28251 0.07400
C 	C 	0.99374 0.57931 0.32891 -0.18400
C 	C 	0.91276 0.66205 0.29693 0.06900
C 	C 	0.88214 0.66145 0.31963 -0.07800
C 	C 	0.88089 0.21021 0.30987 -0.01000
C 	C 	0.90924 0.73830 0.33514 -0.03700
C 	C 	0.94334 0.74499 0.37852 -0.00100
C 	C 	0.94675 0.24045 0.39587 -0.02200
C 	C 	0.94303 0.20058 0.42542 -0.00800
C 	C 	0.91132 0.70014 0.45463 -0.04900
C 	C 	0.87354 0.18236 0.44437 -0.00200
C 	C 	0.86399 0.14267 0.42399 -0.06800
C 	C 	0.90054 0.12701 0.41213 -0.03600
C 	C 	0.94080 0.15595 0.41305 0.03900
C 	C 	0.98036 0.13948 0.40036 -0.17900
C 	C 	0.92852 0.74391 0.30349 0.07400
C 	C 	0.94600 0.79067 0.29020 -0.19700
C 	C 	0.92925 0.70556 0.28367 -0.11500
H 	H 	0.83803 0.68976 0.21579 0.07200
H 	H 	0.79735 0.65048 0.18443 0.06500
H 	H 	0.80173 0.65179 0.23907 0.08800
H 	H 	0.91566 0.66160 0.19497 0.06900
H 	H 	0.94578 0.63310 0.17067 0.08300
H 	H 	0.91963 0.50771 0.51178 0.08200
H 	H 	0.02683 0.67535 0.29963 0.07600
H 	H 	0.99067 0.67767 0.24022 0.07100
H 	H 	0.05287 0.69487 0.26033 0.06600
H 	H 	0.15794 0.66721 0.25619 0.06600
H 	H 	0.68698 0.63067 0.30688 -0.00100
H 	H 	0.19071 0.61435 0.25891 0.08300
H 	H 	0.02817 0.52693 0.17286 0.07100
H 	H 	0.02863 0.06124 0.13943 0.07600
H 	H 	0.01537 0.01632 0.17547 0.06700
H 	H 	0.97314 0.56326 0.34844 0.06300
H 	H 	0.02017 0.55170 0.33022 0.06100
H 	H 	0.01510 0.60900 0.34366 0.06500
H 	H 	0.86356 0.14606 0.28520 0.05000
H 	H 	0.86257 0.19998 0.33179 0.03700
H 	H 	0.91154 0.73468 0.46294 0.03700
H 	H 	0.83493 0.69246 0.44518 0.03800
H 	H 	0.89623 0.09410 0.40002 0.03300
H 	H 	0.01389 0.12445 0.43051 0.06600
H 	H 	0.99276 0.16851 0.38193 0.07100
H 	H 	0.96527 0.11199 0.37969 0.06000
H 	H 	0.95884 0.78986 0.26379 0.06400
H 	H 	0.91373 0.81680 0.27747 0.06800
H 	H 	0.97769 0.80169 0.31894 0.07100
H 	H 	0.93971 0.71067 0.25658 0.05100
C 	C 	0.70211 0.72692 0.71746 0.31300
O 	O 	0.72216 0.06694 0.70170 -0.45000
Fe	Fe	0.17229 0.58156 0.77741 1.20600
Fe	Fe	0.69265 0.63104 0.69813 1.23900
O 	O 	0.74973 0.01856 0.76879 -0.44800
O 	O 	0.80782 0.57404 0.56267 -0.44500
O 	O 	0.81442 0.52326 0.52179 -0.41600
Fe	Fe	0.76525 0.56187 0.47466 1.26400
Fe	Fe	0.73808 0.56182 0.55588 1.22500
O 	O 	0.11515 0.57873 0.48106 -0.37400
O 	O 	0.17594 0.04861 0.54901 -0.42400
O 	O 	0.71674 0.55277 0.49821 -0.66100
C 	C 	0.73981 0.97075 0.59839 0.09900
C 	C 	0.73777 0.02569 0.72655 0.33600
C 	C 	0.69429 0.65723 0.49831 0.32400
C 	C 	0.83648 0.55185 0.54901 0.30700
C 	C 	0.11375 0.57760 0.67416 0.04500
C 	C 	0.12770 0.56672 0.52612 0.27900
O 	O 	0.76458 0.99734 0.57870 -0.11200
O 	O 	0.76682 0.99397 0.58015 -0.17300
O 	O 	0.71768 0.62940 0.53694 -0.42700
O 	O 	0.67326 0.64365 0.46020 -0.42500
O 	O 	0.13417 0.60400 0.70308 -0.11100
C 	C 	0.80295 0.63548 0.73061 0.30700
O 	O 	0.12617 0.60289 0.70867 -0.27800
O 	O 	0.80914 0.59610 0.75823 -0.40700
O 	O 	0.75783 0.65486 0.70367 -0.40500
O 	O 	0.71508 0.61124 0.75516 -0.72700
O 	O 	0.67100 0.69435 0.69951 -0.38900
O 	O 	0.74299 0.71323 0.75314 -0.25900
C 	C 	0.63658 0.83284 0.62929 -0.10200
C 	C 	0.65923 0.78741 0.64877 0.11500
C 	C 	0.65345 0.75092 0.62023 -0.21500
C 	C 	0.69191 0.77775 0.69462 -0.14800
C 	C 	0.71745 0.81738 0.71377 0.09500
C 	C 	0.76560 0.81410 0.75584 -0.20800
C 	C 	0.69772 0.86313 0.69113 -0.06000
C 	C 	0.73075 0.90424 0.69478 -0.06200
C 	C 	0.75183 0.91294 0.66363 0.08400
C 	C 	0.77280 0.87354 0.65084 -0.20000
C 	C 	0.75805 0.95890 0.64712 -0.11300
C 	C 	0.76155 0.99399 0.67229 0.12900
C 	C 	0.78770 0.03815 0.66491 -0.21700
C 	C 	0.74314 0.98604 0.70559 -0.16000
C 	C 	0.72586 0.94108 0.71567 0.10200
C 	C 	0.20369 0.93055 0.74930 -0.19700
C 	C 	0.65054 0.86879 0.65434 0.07700
C 	C 	0.62398 0.91675 0.63471 -0.19400
C 	C 	0.61349 0.84774 0.58107 0.07100
C 	C 	0.56155 0.84529 0.55501 -0.08500
C 	C 	0.04195 0.85762 0.51188 -0.01400
C 	C 	0.57567 0.87456 0.48990 -0.03900
C 	C 	0.56750 0.85969 0.44939 -0.00900
C 	C 	0.08450 0.82819 0.44157 -0.02300
C 	C 	0.11139 0.78359 0.45549 -0.00300
C 	C 	0.65819 0.78089 0.44925 -0.05100
C 	C 	0.18884 0.74019 0.47111 0.01200
C 	C 	0.17655 0.70372 0.49714 -0.08000
C 	C 	0.13167 0.70776 0.50223 -0.03100
C 	C 	0.10000 0.74785 0.48328 0.03900
C 	C 	0.05534 0.75106 0.49435 -0.18400
C 	C 	0.62642 0.88330 0.51688 0.07600
C 	C 	0.66401 0.89909 0.49802 -0.19600
C 	C 	0.64499 0.86827 0.56196 -0.11500
H 	H 	0.68889 0.72882 0.63289 0.07100
H 	H 	0.62192 0.72927 0.62037 0.07200
H 	H 	0.64602 0.76587 0.58589 0.07300
H 	H 	0.79367 0.83876 0.75136 0.07200
H 	H 	0.75675 0.82354 0.78230 0.07000
H 	H 	0.77880 0.77062 0.43526 0.07200
H 	H 	0.77193 0.88307 0.61753 0.07200
H 	H 	0.75202 0.84101 0.65111 0.07300
H 	H 	0.81310 0.86593 0.67456 0.07100
H 	H 	0.80635 0.05360 0.69539 0.08400
H 	H 	0.81827 0.03077 0.65503 0.06500
H 	H 	0.76019 0.06366 0.63878 0.04700
H 	H 	0.73168 0.93109 0.78190 0.08000
H 	H 	0.17474 0.95872 0.74174 0.04600
H 	H 	0.18397 0.89721 0.74867 0.06500
H 	H 	0.58292 0.91348 0.61408 0.06800
H 	H 	0.62613 0.93615 0.66085 0.06600
H 	H 	0.64129 0.93726 0.61415 0.07600
H 	H 	0.03622 0.82957 0.57239 0.04300
H 	H 	0.00279 0.85096 0.49174 0.02500
H 	H 	0.66936 0.80923 0.43067 0.04100
H 	H 	0.72419 0.73754 0.46502 0.02900
H 	H 	0.11807 0.67783 0.51700 0.03800
H 	H 	0.03922 0.71621 0.49719 0.06400
H 	H 	0.02477 0.77544 0.46920 0.07000
H 	H 	0.06805 0.76272 0.52648 0.06400
H 	H 	0.69454 0.91876 0.52038 0.07000
H 	H 	0.68170 0.86811 0.49351 0.06800
H 	H 	0.64470 0.92243 0.46595 0.06200
H 	H 	0.68482 0.87090 0.58209 0.05800
C 	C 	0.90894 0.65300 0.56269 -0.10000
C 	C 	0.86798 0.63015 0.53570 0.11800
C 	C 	0.81605 0.65515 0.51331 -0.20800
C 	C 	0.87516 0.58109 0.54034 -0.17200
C 	C 	0.92444 0.56332 0.54781 0.11100
C 	C 	0.93289 0.51290 0.54646 -0.21200
C 	C 	0.96564 0.59375 0.56323 -0.05700
C 	C 	0.02082 0.59034 0.56809 -0.05600
C 	C 	0.05327 0.61635 0.59938 0.08300
C 	C 	0.04852 0.66901 0.58712 -0.19900
C 	C 	0.10095 0.59758 0.62513 -0.11600
C 	C 	0.12659 0.58921 0.59852 0.07900
C 	C 	0.17259 0.61819 0.60628 -0.15300
C 	C 	0.09754 0.57770 0.55378 -0.11300
C 	C 	0.04364 0.57179 0.54236 0.08200
C 	C 	0.01767 0.04580 0.50017 -0.20800
C 	C 	0.95502 0.62734 0.58481 0.07800
C 	C 	0.97762 0.61881 0.63460 -0.18800
C 	C 	0.89887 0.69227 0.58054 0.07100
C 	C 	0.87208 0.68434 0.60679 -0.08100
C 	C 	0.87787 0.20321 0.64396 -0.01100
C 	C 	0.89243 0.76065 0.62603 -0.03800
C 	C 	0.92007 0.77356 0.66856 -0.00300
C 	C 	0.93484 0.24620 0.72619 -0.02100
C 	C 	0.93651 0.20871 0.76008 -0.00500
C 	C 	0.89105 0.73568 0.75152 -0.04900
C 	C 	0.86739 0.19326 0.78020 0.00300
C 	C 	0.85826 0.15227 0.76175 -0.07200
C 	C 	0.89510 0.13439 0.75151 -0.03300
C 	C 	0.93497 0.16258 0.75069 0.04000
C 	C 	0.97078 0.14492 0.73441 -0.18500
C 	C 	0.91001 0.77237 0.59317 0.07400
C 	C 	0.92057 0.82215 0.58051 -0.19700
C 	C 	0.91436 0.73723 0.57087 -0.11400
H 	H 	0.81904 0.69247 0.50126 0.07300
H 	H 	0.79040 0.63886 0.48527 0.03000
H 	H 	0.79911 0.65562 0.53678 0.08100
H 	H 	0.97349 0.50160 0.56550 0.07100
H 	H 	0.91148 0.48992 0.56167 0.08400
H 	H 	0.88934 0.55084 0.78207 0.09600
H 	H 	0.05312 0.68459 0.61621 0.06700
H 	H 	0.01145 0.68197 0.55978 0.06900
H 	H 	0.07758 0.68150 0.57520 0.06200
H 	H 	0.16187 0.65171 0.58375 0.06000
H 	H 	0.68634 0.63388 0.63516 -0.01600
H 	H 	0.20251 0.60032 0.60265 0.04400
H 	H 	0.97435 0.55545 0.49047 0.07900
H 	H 	0.03789 0.04354 0.47927 0.07500
H 	H 	0.01264 0.00913 0.51242 0.06500
H 	H 	0.94755 0.60635 0.64538 0.06600
H 	H 	0.00775 0.59058 0.64954 0.06600
H 	H 	0.99312 0.65137 0.64741 0.07000
H 	H 	0.86706 0.13655 0.62357 0.04800
H 	H 	0.85773 0.19372 0.66451 0.03600
H 	H 	0.88891 0.77105 0.75729 0.03600
H 	H 	0.82095 0.72109 0.75338 0.04400
H 	H 	0.89052 0.10068 0.74069 0.03400
H 	H 	0.99663 0.11720 0.75954 0.06500
H 	H 	0.99426 0.17267 0.72720 0.06800
H 	H 	0.94917 0.12978 0.70430 0.06200
H 	H 	0.93039 0.82636 0.55190 0.06500
H 	H 	0.88557 0.84418 0.57075 0.06900
H 	H 	0.95191 0.83442 0.60863 0.06900
H 	H 	0.93032 0.74443 0.54695 0.05400
C 	C 	0.71773 0.73051 0.05357 0.30400
O 	O 	0.72349 0.06740 0.03317 -0.43200
Fe	Fe	0.13533 0.59792 0.09953 1.16600
Fe	Fe	0.70739 0.63457 0.03483 1.20200
O 	O 	0.75010 0.01979 0.10206 -0.42800
O 	O 	0.82216 0.58571 0.87294 -0.44000
O 	O 	0.82354 0.53568 0.82995 -0.41000
Fe	Fe	0.76869 0.57490 0.79086 1.26100
Fe	Fe	0.75708 0.57180 0.87936 1.21900
O 	O 	0.12929 0.57130 0.81459 -0.37800
O 	O 	0.17221 0.04418 0.88006 -0.42000
O 	O 	0.72823 0.55936 0.82252 -0.66400
C 	C 	0.73966 0.96971 0.93526 0.09600
C 	C 	0.73792 0.02629 0.05944 0.33200
C 	C 	0.69946 0.66290 0.82434 0.32700
C 	C 	0.84803 0.56430 0.85557 0.29200
C 	C 	0.10628 0.59877 0.99731 -0.06000
C 	C 	0.14658 0.56579 0.86020 0.28600
O 	O 	0.76363 0.99477 0.91420 -0.11200
O 	O 	0.76618 0.99149 0.91576 -0.17600
O 	O 	0.73562 0.63887 0.86041 -0.43000
O 	O 	0.67109 0.64643 0.78850 -0.41600
O 	O 	0.14588 0.60348 0.03475 -0.00200
C 	C 	0.79947 0.63348 0.06558 0.31900
O 	O 	0.14498 0.60211 0.03921 -0.10700
O 	O 	0.78471 0.60449 0.09149 -0.48600
O 	O 	0.76603 0.65908 0.03038 -0.42600
O 	O 	0.67487 0.60095 0.06720 -0.61300
O 	O 	0.68758 0.69486 0.04361 -0.41500
O 	O 	0.76708 0.72276 0.07465 -0.26000
C 	C 	0.63701 0.83194 0.96652 -0.10000
C 	C 	0.65995 0.78671 0.98665 0.11000
C 	C 	0.64970 0.74795 0.95952 -0.20800
C 	C 	0.69694 0.77913 0.03138 -0.14800
C 	C 	0.71947 0.81913 0.05040 0.09600
C 	C 	0.76879 0.81603 0.09143 -0.20300
C 	C 	0.69870 0.86391 0.02723 -0.05800
C 	C 	0.73157 0.90445 0.03044 -0.06500
C 	C 	0.75363 0.91194 -0.00000 0.09000
C 	C 	0.77259 0.87209 0.98617 -0.20400
C 	C 	0.76105 0.95738 0.98377 -0.11700
C 	C 	0.76470 0.99265 0.00856 0.13200
C 	C 	0.79444 0.03509 0.00356 -0.22000
C 	C 	0.74376 0.98606 0.03999 -0.16300
C 	C 	0.72585 0.94177 0.05025 0.10700
C 	C 	0.19755 0.93396 0.07950 -0.20200
C 	C 	0.65162 0.86889 0.99041 0.07500
C 	C 	0.62501 0.91678 0.96996 -0.19300
C 	C 	0.61195 0.84536 0.91813 0.06900
C 	C 	0.56066 0.83791 0.89348 -0.08400
C 	C 	0.04025 0.84523 0.84439 -0.01400
C 	C 	0.56999 0.86943 0.82651 -0.03800
C 	C 	0.56111 0.85588 0.78538 -0.01000
C 	C 	0.08370 0.82146 0.77358 -0.02100
C 	C 	0.11313 0.77843 0.78709 -0.00300
C 	C 	0.65703 0.78658 0.78485 -0.04800
C 	C 	0.19694 0.74188 0.81206 0.00700
C 	C 	0.18115 0.70073 0.82931 -0.07400
C 	C 	0.13196 0.69960 0.82740 -0.03300
C 	C 	0.09855 0.73856 0.80832 0.03900
C 	C 	0.04911 0.73685 0.81294 -0.18100
C 	C 	0.61983 0.88221 0.85175 0.07200
C 	C 	0.65470 0.90153 0.83087 -0.19300
C 	C 	0.64061 0.86874 0.89720 -0.11200
H 	H 	0.68602 0.72939 0.96689 0.06500
H 	H 	0.62369 0.72329 0.96733 0.06500
H 	H 	0.63288 0.76034 0.92361 0.06900
H 	H 	0.80137 0.81463 0.08257 0.07800
H 	H 	0.77217 0.84681 0.10792 0.07000
H 	H 	0.78594 0.78004 0.76699 0.08500
H 	H 	0.77002 0.88145 0.95229 0.07300
H 	H 	0.75154 0.83986 0.98697 0.07600
H 	H 	0.81324 0.86409 0.00878 0.07200
H 	H 	0.81652 0.04615 0.03589 0.08500
H 	H 	0.82236 0.02739 0.99081 0.06900
H 	H 	0.76891 0.06419 0.98099 0.05800
H 	H 	0.72959 0.93371 0.11578 0.08200
H 	H 	0.16916 0.96300 0.07077 0.05900
H 	H 	0.17670 0.90120 0.07814 0.06700
H 	H 	0.58421 0.91356 0.94848 0.06900
H 	H 	0.62602 0.93635 0.99563 0.06700
H 	H 	0.64323 0.93723 0.95013 0.07500
H 	H 	0.03825 0.81669 0.90621 0.04400
H 	H 	0.00330 0.83252 0.82541 0.02600
H 	H 	0.66770 0.81805 0.76939 0.03700
H 	H 	0.72907 0.75089 0.80542 0.03800
H 	H 	0.11807 0.66708 0.83807 0.04100
H 	H 	0.03472 0.70096 0.81269 0.06300
H 	H 	0.01948 0.76046 0.78582 0.07000
H 	H 	0.05536 0.74731 0.84472 0.06200
H 	H 	0.68264 0.92452 0.85143 0.06700
H 	H 	0.67579 0.87225 0.82746 0.06700
H 	H 	0.63279 0.92257 0.79793 0.05500
H 	H 	0.67999 0.87520 0.91630 0.05700
C 	C 	0.93670 0.61240 0.91191 -0.11200
C 	C 	0.90335 0.62819 0.86822 0.12500
C 	C 	0.86718 0.67031 0.85409 -0.21900
C 	C 	0.88964 0.59046 0.84633 -0.16100
C 	C 	0.93312 0.56726 0.84683 0.11000
C 	C 	0.92914 0.54909 0.80699 -0.21600
C 	C 	0.98063 0.56777 0.88491 -0.06500
C 	C 	0.03186 0.58400 0.88679 -0.04900
C 	C 	0.05565 0.61692 0.91577 0.06200
C 	C 	0.02998 0.66234 0.91332 -0.19300
C 	C 	0.10420 0.60578 0.94871 -0.07600
C 	C 	0.13705 0.59514 0.92832 0.07300
C 	C 	0.17807 0.62963 0.93349 -0.16400
C 	C 	0.11519 0.57512 0.88641 -0.11300
C 	C 	0.06428 0.56082 0.87345 0.08000
C 	C 	0.01798 0.05217 0.83504 -0.20200
C 	C 	0.97326 0.57636 0.92098 0.08900
C 	C 	0.00465 0.54954 0.96646 -0.20400
C 	C 	0.91607 0.61228 0.94245 0.08700
C 	C 	0.89875 0.56946 0.95690 -0.08300
C 	C 	0.88599 0.21012 0.98285 -0.01400
C 	C 	0.90410 0.60440 0.01468 -0.02700
C 	C 	0.95757 0.59810 0.04451 -0.00800
C 	C 	0.95484 0.23958 0.06960 -0.02100
C 	C 	0.94956 0.20016 0.09877 -0.00600
C 	C 	0.93845 0.65172 0.09714 -0.06000
C 	C 	0.87778 0.18381 0.11518 0.00900
C 	C 	0.86880 0.14395 0.09515 -0.07200
C 	C 	0.90525 0.12796 0.08333 -0.03400
C 	C 	0.94699 0.15555 0.08625 0.03800
C 	C 	0.98479 0.14016 0.07096 -0.17900
C 	C 	0.89142 0.64844 0.98774 0.07400
C 	C 	0.84258 0.67487 0.97675 -0.20100
C 	C 	0.90979 0.65361 0.95603 -0.12300
H 	H 	0.88911 0.70257 0.85775 0.07000
H 	H 	0.83981 0.67209 0.81945 0.07900
H 	H 	0.84388 0.66894 0.87302 0.08400
H 	H 	0.95217 0.57032 0.79235 0.07400
H 	H 	0.94177 0.51181 0.81582 0.07500
H 	H 	0.87513 0.63822 0.15063 0.09100
H 	H 	0.02158 0.66181 0.94241 0.06400
H 	H 	0.99499 0.67037 0.88236 0.07200
H 	H 	0.05553 0.69130 0.91270 0.05800
H 	H 	0.16164 0.66214 0.91011 0.06200
H 	H 	0.69757 0.64378 0.96413 0.01600
H 	H 	0.20977 0.61649 0.92846 0.07100
H 	H 	0.02845 0.53265 0.81342 0.06600
H 	H 	0.03488 0.05420 0.81109 0.06500
H 	H 	0.01798 0.01458 0.84796 0.06300
H 	H 	0.98329 0.52007 0.97455 0.06700
H 	H 	0.03985 0.53364 0.96823 0.06800
H 	H 	0.01442 0.57282 0.99150 0.05500
H 	H 	0.86562 0.14611 0.95799 0.04800
H 	H 	0.86696 0.20143 0.00441 0.04200
H 	H 	0.96333 0.67984 0.09550 0.03900
H 	H 	0.87243 0.69856 0.07068 0.03200
H 	H 	0.89989 0.09576 0.06992 0.03300
H 	H 	0.98165 0.10253 0.06801 0.05800
H 	H 	0.02393 0.14558 0.09500 0.06900
H 	H 	0.97841 0.16055 0.03852 0.07000
H 	H 	0.82242 0.68802 0.94086 0.06900
H 	H 	0.81604 0.65168 0.98547 0.08100
H 	H 	0.85054 0.70533 0.99408 0.07500
H 	H 	0.91235 0.68781 0.93889 0.05500
