data_crystal

_cell_length_a 27.37040
_cell_length_b 27.44370
_cell_length_c 36.96080
_cell_angle_alpha 103.99500
_cell_angle_beta  76.56600
_cell_angle_gamma 95.42600

_symmetry_space_group_name_	'P 1'
_symmetry_space_group_name_H-M	'P 1'

loop_
_symmetry_equiv_pos_as_xyz
  x,y,z

loop_
_atom_site_label
_atom_site_type_symbol
_atom_site_fract_x
_atom_site_fract_y
_atom_site_fract_z
_atom_site_charge
Mg	Mg	0.97494 0.04210 0.26187 1.47100
Mg	Mg	0.02673 0.03321 0.00359 1.47300
O 	O 	0.01030 0.09052 0.22649 -0.44200
O 	O 	0.54570 0.16538 0.25301 -0.25100
H 	H 	0.39108 0.05160 0.33426 0.15300
O 	O 	0.36131 0.05217 0.32284 -0.34900
O 	O 	0.40981 0.07759 0.27054 -0.46000
O 	O 	0.08733 0.04412 0.29324 -0.42900
O 	O 	0.49078 0.07861 0.31370 -0.77200
O 	O 	0.93815 0.48790 0.28760 -0.47300
O 	O 	0.00723 0.46711 0.30347 -0.45900
O 	O 	0.13733 0.42352 0.07931 -0.24400
O 	O 	0.05923 0.41085 0.06591 -0.45400
O 	O 	0.16451 0.54552 0.08827 -0.34600
O 	O 	0.08696 0.01151 0.11161 -0.44600
O 	O 	0.45932 0.02158 0.03978 -0.45800
H 	H 	0.51424 0.10731 0.30912 0.20500
H 	H 	0.46129 0.09385 0.33256 0.21100
O 	O 	0.06893 0.49227 0.02527 -0.78100
O 	O 	0.00601 0.04947 0.09058 -0.48300
O 	O 	0.04614 0.09358 0.04587 -0.43100
H 	H 	0.15920 0.53573 0.06128 0.14800
H 	H 	0.07610 0.45934 0.00727 0.21100
H 	H 	0.10182 0.51009 0.02624 0.19700
C 	C 	0.03473 0.13371 0.22287 0.30200
C 	C 	0.36571 0.06947 0.29211 0.32500
C 	C 	0.08103 0.03042 0.25711 0.31200
C 	C 	0.96304 0.45441 0.29500 0.36000
C 	C 	0.09852 0.39361 0.07270 0.29100
C 	C 	0.13070 0.03419 0.11701 0.34200
C 	C 	0.03320 0.08872 0.08229 0.30700
C 	C 	0.03182 0.29331 0.12171 -0.00500
C 	C 	0.04151 0.33486 0.10515 -0.01600
C 	C 	0.09007 0.34600 0.08533 -0.06200
C 	C 	0.12955 0.31520 0.08244 -0.03400
C 	C 	0.12023 0.27219 0.09794 0.03500
C 	C 	0.16368 0.23927 0.09458 -0.08700
C 	C 	0.16229 0.21620 0.12938 -0.07700
C 	C 	0.12017 0.17735 0.13709 0.01200
C 	C 	0.09721 0.17497 0.17521 -0.02200
C 	C 	0.05470 0.14296 0.18331 -0.07300
C 	C 	0.03278 0.11739 0.15258 0.01200
C 	C 	0.05471 0.12020 0.11422 -0.08800
C 	C 	0.10047 0.14673 0.10680 -0.01200
C 	C 	0.07033 0.26060 0.11524 -0.06400
C 	C 	0.98779 0.29250 0.15406 0.03100
C 	C 	0.44291 0.31441 0.15520 -0.05200
C 	C 	0.41492 0.33993 0.19014 -0.03200
C 	C 	0.43306 0.34526 0.22333 -0.01400
C 	C 	0.42084 0.38716 0.25350 -0.00300
C 	C 	0.45115 0.40079 0.28051 -0.09500
C 	C 	0.48165 0.36480 0.28441 0.02800
C 	C 	0.99126 0.32100 0.25594 -0.06000
C 	C 	0.97165 0.31450 0.22320 0.04100
C 	C 	0.99690 0.28566 0.18852 -0.05700
H 	H 	0.01234 0.36151 0.11090 0.02700
H 	H 	0.16737 0.32488 0.06848 0.04400
H 	H 	0.16781 0.21005 0.06762 0.04500
H 	H 	0.19922 0.26263 0.09118 0.04400
H 	H 	0.19829 0.19740 0.12421 0.04300
H 	H 	0.16141 0.24718 0.15524 0.04500
H 	H 	0.11337 0.19716 0.19840 0.04300
H 	H 	0.49903 0.09406 0.15854 0.03200
H 	H 	0.11883 0.14559 0.07742 0.04100
H 	H 	0.05990 0.22857 0.12699 0.05500
H 	H 	0.43327 0.31764 0.12909 0.03800
H 	H 	0.38379 0.36151 0.19055 0.03000
H 	H 	0.39537 0.41385 0.25141 0.03400
H 	H 	0.00334 0.37348 0.30641 0.03100
H 	H 	0.01969 0.29666 0.25690 0.04600
H 	H 	0.03019 0.26717 0.18849 0.04300
C 	C 	0.27554 0.01321 0.22998 0.00100
C 	C 	0.31315 0.01845 0.25082 -0.02600
C 	C 	0.32240 0.06480 0.27484 -0.06800
C 	C 	0.29653 0.10706 0.27613 -0.02800
C 	C 	0.25819 0.10219 0.25581 0.03600
C 	C 	0.23418 0.14922 0.25377 -0.08900
C 	C 	0.21947 0.14844 0.21524 -0.07500
C 	C 	0.17670 0.11196 0.20525 0.00700
C 	C 	0.17489 0.09040 0.16660 -0.01500
C 	C 	0.13929 0.05135 0.15713 -0.08400
C 	C 	0.11016 0.03044 0.18700 0.02300
C 	C 	0.11271 0.05129 0.22564 -0.09500
C 	C 	0.14112 0.09548 0.23426 -0.00600
C 	C 	0.24439 0.05343 0.23738 -0.06500
C 	C 	0.30517 0.43087 0.18541 -0.05200
C 	C 	0.33284 0.41110 0.14857 -0.03200
C 	C 	0.33759 0.43795 0.12007 -0.01500
C 	C 	0.37963 0.43260 0.08967 -0.00500
C 	C 	0.39177 0.46978 0.06822 -0.10000
C 	C 	0.35577 0.50453 0.07138 0.02900
H 	H 	0.30724 0.14368 0.29187 0.04000
H 	H 	0.20236 0.15927 0.27857 0.05000
H 	H 	0.26189 0.18134 0.25783 0.04700
H 	H 	0.20800 0.18671 0.21655 0.04300
H 	H 	0.25343 0.14120 0.19167 0.04400
H 	H 	0.20053 0.10485 0.14417 0.04100
H 	H 	0.08470 0.49855 0.18023 0.03000
H 	H 	0.13896 0.11351 0.26393 0.04600
H 	H 	0.21343 0.04588 0.22403 0.05700
H 	H 	0.30831 0.41459 0.20864 0.04000
H 	H 	0.35571 0.37918 0.14364 0.03000
H 	H 	0.40666 0.40478 0.08702 0.03300
H 	H 	0.36393 0.03377 0.05585 0.03900
H 	H 	0.28604 0.03645 0.10259 0.05700
H 	H 	0.25138 0.02512 0.16496 0.04700
Mg	Mg	0.97494 0.04210 0.59520 1.47200
Mg	Mg	0.02673 0.03321 0.33692 1.47700
O 	O 	0.01030 0.09052 0.55982 -0.44100
O 	O 	0.54570 0.16538 0.58634 -0.25000
H 	H 	0.39108 0.05160 0.66760 0.15400
O 	O 	0.36131 0.05217 0.65618 -0.34800
O 	O 	0.40981 0.07759 0.60388 -0.46000
O 	O 	0.08733 0.04412 0.62658 -0.42900
O 	O 	0.49078 0.07861 0.64703 -0.77200
O 	O 	0.93815 0.48790 0.62094 -0.47300
O 	O 	0.00723 0.46711 0.63680 -0.45800
O 	O 	0.13733 0.42352 0.41264 -0.24200
O 	O 	0.05923 0.41085 0.39925 -0.45100
O 	O 	0.16451 0.54552 0.42161 -0.34400
O 	O 	0.08696 0.01151 0.44494 -0.44600
O 	O 	0.45932 0.02158 0.37311 -0.45200
H 	H 	0.51424 0.10731 0.64245 0.20500
H 	H 	0.46129 0.09385 0.66589 0.21100
O 	O 	0.06893 0.49227 0.35861 -0.77900
O 	O 	0.00601 0.04947 0.42392 -0.48200
O 	O 	0.04614 0.09358 0.37920 -0.42400
H 	H 	0.15920 0.53573 0.39461 0.15100
H 	H 	0.07610 0.45934 0.34061 0.21800
H 	H 	0.10182 0.51009 0.35957 0.20100
C 	C 	0.03473 0.13371 0.55621 0.30200
C 	C 	0.36571 0.06947 0.62544 0.32500
C 	C 	0.08103 0.03042 0.59045 0.31200
C 	C 	0.96304 0.45441 0.62833 0.35900
C 	C 	0.09852 0.39361 0.40603 0.29200
C 	C 	0.13070 0.03419 0.45035 0.34200
C 	C 	0.03320 0.08872 0.41563 0.30600
C 	C 	0.03182 0.29331 0.45504 -0.00300
C 	C 	0.04151 0.33486 0.43848 -0.01500
C 	C 	0.09007 0.34600 0.41867 -0.06000
C 	C 	0.12955 0.31520 0.41578 -0.03300
C 	C 	0.12023 0.27219 0.43127 0.03700
C 	C 	0.16368 0.23927 0.42791 -0.08800
C 	C 	0.16229 0.21620 0.46271 -0.07700
C 	C 	0.12017 0.17735 0.47042 0.01200
C 	C 	0.09721 0.17497 0.50855 -0.02200
C 	C 	0.05470 0.14296 0.51664 -0.07300
C 	C 	0.03278 0.11739 0.48591 0.01200
C 	C 	0.05471 0.12020 0.44755 -0.08600
C 	C 	0.10047 0.14673 0.44013 -0.01300
C 	C 	0.07033 0.26060 0.44857 -0.06400
C 	C 	0.98779 0.29250 0.48739 0.03100
C 	C 	0.44291 0.31441 0.48853 -0.05200
C 	C 	0.41492 0.33993 0.52347 -0.03200
C 	C 	0.43306 0.34526 0.55666 -0.01400
C 	C 	0.42084 0.38716 0.58683 -0.00300
C 	C 	0.45115 0.40079 0.61385 -0.09500
C 	C 	0.48165 0.36480 0.61774 0.02800
C 	C 	0.99126 0.32100 0.58927 -0.06100
C 	C 	0.97165 0.31450 0.55653 0.04100
C 	C 	0.99690 0.28566 0.52185 -0.05800
H 	H 	0.01234 0.36151 0.44423 0.02800
H 	H 	0.16737 0.32488 0.40181 0.04700
H 	H 	0.16781 0.21005 0.40095 0.04900
H 	H 	0.19922 0.26263 0.42451 0.04700
H 	H 	0.19829 0.19740 0.45754 0.04400
H 	H 	0.16141 0.24718 0.48857 0.04500
H 	H 	0.11337 0.19716 0.53173 0.04300
H 	H 	0.49903 0.09406 0.49188 0.03300
H 	H 	0.11883 0.14559 0.41076 0.04400
H 	H 	0.05990 0.22857 0.46033 0.05500
H 	H 	0.43327 0.31764 0.46242 0.03900
H 	H 	0.38379 0.36151 0.52388 0.03000
H 	H 	0.39537 0.41385 0.58474 0.03400
H 	H 	0.00334 0.37348 0.63974 0.03100
H 	H 	0.01969 0.29666 0.59024 0.04600
H 	H 	0.03019 0.26717 0.52182 0.04400
C 	C 	0.27554 0.01321 0.56331 0.00100
C 	C 	0.31315 0.01845 0.58415 -0.02600
C 	C 	0.32240 0.06480 0.60818 -0.06800
C 	C 	0.29653 0.10706 0.60946 -0.02800
C 	C 	0.25819 0.10219 0.58915 0.03600
C 	C 	0.23418 0.14922 0.58710 -0.08900
C 	C 	0.21947 0.14844 0.54857 -0.07500
C 	C 	0.17670 0.11196 0.53858 0.00700
C 	C 	0.17489 0.09040 0.49994 -0.01500
C 	C 	0.13929 0.05135 0.49046 -0.08300
C 	C 	0.11016 0.03044 0.52033 0.02300
C 	C 	0.11271 0.05129 0.55897 -0.09400
C 	C 	0.14112 0.09548 0.56760 -0.00700
C 	C 	0.24439 0.05343 0.57071 -0.06500
C 	C 	0.30517 0.43087 0.51874 -0.05200
C 	C 	0.33284 0.41110 0.48190 -0.03200
C 	C 	0.33759 0.43795 0.45341 -0.01400
C 	C 	0.37963 0.43260 0.42301 -0.00500
C 	C 	0.39177 0.46978 0.40155 -0.09700
C 	C 	0.35577 0.50453 0.40471 0.03000
H 	H 	0.30724 0.14368 0.62520 0.04000
H 	H 	0.20236 0.15927 0.61190 0.04900
H 	H 	0.26189 0.18134 0.59116 0.04700
H 	H 	0.20800 0.18671 0.54988 0.04300
H 	H 	0.25343 0.14120 0.52500 0.04400
H 	H 	0.20053 0.10485 0.47750 0.04200
H 	H 	0.08470 0.49855 0.51356 0.03000
H 	H 	0.13896 0.11351 0.59726 0.04600
H 	H 	0.21343 0.04588 0.55736 0.05700
H 	H 	0.30831 0.41459 0.54198 0.04000
H 	H 	0.35571 0.37918 0.47698 0.03100
H 	H 	0.40666 0.40478 0.42035 0.03500
H 	H 	0.36393 0.03377 0.38918 0.04200
H 	H 	0.28604 0.03645 0.43592 0.05900
H 	H 	0.25138 0.02512 0.49829 0.04700
Mg	Mg	0.97494 0.04210 0.92854 1.47200
Mg	Mg	0.02673 0.03321 0.67025 1.47700
O 	O 	0.01030 0.09052 0.89315 -0.44000
O 	O 	0.54570 0.16538 0.91968 -0.24700
H 	H 	0.39108 0.05160 0.00093 0.13100
O 	O 	0.36131 0.05217 0.98951 -0.32200
O 	O 	0.40981 0.07759 0.93721 -0.45600
O 	O 	0.08733 0.04412 0.95991 -0.42100
O 	O 	0.49078 0.07861 0.98037 -0.76900
O 	O 	0.93815 0.48790 0.95427 -0.46900
O 	O 	0.00723 0.46711 0.97014 -0.45000
O 	O 	0.13733 0.42352 0.74598 -0.24200
O 	O 	0.05923 0.41085 0.73258 -0.45100
O 	O 	0.16451 0.54552 0.75494 -0.34400
O 	O 	0.08696 0.01151 0.77828 -0.44600
O 	O 	0.45932 0.02158 0.70645 -0.45100
H 	H 	0.51424 0.10731 0.97579 0.20900
H 	H 	0.46129 0.09385 0.99923 0.22000
O 	O 	0.06893 0.49227 0.69194 -0.77900
O 	O 	0.00601 0.04947 0.75725 -0.48200
O 	O 	0.04614 0.09358 0.71253 -0.42400
H 	H 	0.15920 0.53573 0.72795 0.15100
H 	H 	0.07610 0.45934 0.67394 0.21800
H 	H 	0.10182 0.51009 0.69290 0.20100
C 	C 	0.03473 0.13371 0.88954 0.30200
C 	C 	0.36571 0.06947 0.95878 0.31900
C 	C 	0.08103 0.03042 0.92378 0.31100
C 	C 	0.96304 0.45441 0.96166 0.36100
C 	C 	0.09852 0.39361 0.73937 0.29200
C 	C 	0.13070 0.03419 0.78368 0.34200
C 	C 	0.03320 0.08872 0.74896 0.30600
C 	C 	0.03182 0.29331 0.78838 -0.00300
C 	C 	0.04151 0.33486 0.77182 -0.01500
C 	C 	0.09007 0.34600 0.75200 -0.06000
C 	C 	0.12955 0.31520 0.74911 -0.03300
C 	C 	0.12023 0.27219 0.76461 0.03700
C 	C 	0.16368 0.23927 0.76125 -0.08800
C 	C 	0.16229 0.21620 0.79605 -0.07700
C 	C 	0.12017 0.17735 0.80375 0.01300
C 	C 	0.09721 0.17497 0.84188 -0.02200
C 	C 	0.05470 0.14296 0.84998 -0.07200
C 	C 	0.03278 0.11739 0.81925 0.01200
C 	C 	0.05471 0.12020 0.78089 -0.08600
C 	C 	0.10047 0.14673 0.77347 -0.01300
C 	C 	0.07033 0.26060 0.78190 -0.06400
C 	C 	0.98779 0.29250 0.82073 0.03000
C 	C 	0.44291 0.31441 0.82187 -0.05100
C 	C 	0.41492 0.33993 0.85681 -0.03200
C 	C 	0.43306 0.34526 0.88999 -0.01300
C 	C 	0.42084 0.38716 0.92016 -0.00200
C 	C 	0.45115 0.40079 0.94718 -0.09100
C 	C 	0.48165 0.36480 0.95108 0.02900
C 	C 	0.99126 0.32100 0.92261 -0.05900
C 	C 	0.97165 0.31450 0.88987 0.04100
C 	C 	0.99690 0.28566 0.85518 -0.05800
H 	H 	0.01234 0.36151 0.77756 0.02800
H 	H 	0.16737 0.32488 0.73514 0.04700
H 	H 	0.16781 0.21005 0.73428 0.04900
H 	H 	0.19922 0.26263 0.75785 0.04700
H 	H 	0.19829 0.19740 0.79087 0.04500
H 	H 	0.16141 0.24718 0.82190 0.04600
H 	H 	0.11337 0.19716 0.86507 0.04400
H 	H 	0.49903 0.09406 0.82521 0.03300
H 	H 	0.11883 0.14559 0.74409 0.04400
H 	H 	0.05990 0.22857 0.79366 0.05600
H 	H 	0.43327 0.31764 0.79575 0.03900
H 	H 	0.38379 0.36151 0.85721 0.03100
H 	H 	0.39537 0.41385 0.91808 0.03500
H 	H 	0.00334 0.37348 0.97308 0.03700
H 	H 	0.01969 0.29666 0.92357 0.04900
H 	H 	0.03019 0.26717 0.85516 0.04400
C 	C 	0.27554 0.01321 0.89664 0.00300
C 	C 	0.31315 0.01845 0.91748 -0.02700
C 	C 	0.32240 0.06480 0.94151 -0.06300
C 	C 	0.29653 0.10706 0.94279 -0.02900
C 	C 	0.25819 0.10219 0.92248 0.03900
C 	C 	0.23418 0.14922 0.92044 -0.09000
C 	C 	0.21947 0.14844 0.88191 -0.07400
C 	C 	0.17670 0.11196 0.87191 0.00800
C 	C 	0.17489 0.09040 0.83327 -0.01500
C 	C 	0.13929 0.05135 0.82379 -0.08300
C 	C 	0.11016 0.03044 0.85366 0.02300
C 	C 	0.11271 0.05129 0.89230 -0.09300
C 	C 	0.14112 0.09548 0.90093 -0.00700
C 	C 	0.24439 0.05343 0.90404 -0.06500
C 	C 	0.30517 0.43087 0.85207 -0.05100
C 	C 	0.33284 0.41110 0.81524 -0.03200
C 	C 	0.33759 0.43795 0.78674 -0.01400
C 	C 	0.37963 0.43260 0.75634 -0.00500
C 	C 	0.39177 0.46978 0.73489 -0.09700
C 	C 	0.35577 0.50453 0.73805 0.03000
H 	H 	0.30724 0.14368 0.95854 0.04400
H 	H 	0.20236 0.15927 0.94523 0.05400
H 	H 	0.26189 0.18134 0.92449 0.04900
H 	H 	0.20800 0.18671 0.88322 0.04400
H 	H 	0.25343 0.14120 0.85834 0.04400
H 	H 	0.20053 0.10485 0.81083 0.04200
H 	H 	0.08470 0.49855 0.84689 0.03000
H 	H 	0.13896 0.11351 0.93060 0.04800
H 	H 	0.21343 0.04588 0.89070 0.05800
H 	H 	0.30831 0.41459 0.87531 0.04100
H 	H 	0.35571 0.37918 0.81031 0.03100
H 	H 	0.40666 0.40478 0.75368 0.03500
H 	H 	0.36393 0.03377 0.72251 0.04200
H 	H 	0.28604 0.03645 0.76926 0.05900
H 	H 	0.25138 0.02512 0.83163 0.04700
Mg	Mg	0.97494 0.54210 0.26187 1.47300
Mg	Mg	0.03429 0.48090 0.07747 1.47200
Mg	Mg	0.02673 0.53321 0.00359 1.47500
O 	O 	0.01030 0.59052 0.22649 -0.44000
O 	O 	0.54570 0.66538 0.25301 -0.24900
H 	H 	0.39108 0.55160 0.33426 0.15600
O 	O 	0.36131 0.55217 0.32284 -0.34700
O 	O 	0.40981 0.57759 0.27054 -0.45800
O 	O 	0.03962 0.50636 0.24970 -0.47500
O 	O 	0.08733 0.54412 0.29324 -0.42700
O 	O 	0.49078 0.57861 0.31370 -0.77000
O 	O 	0.08696 0.51151 0.11161 -0.44200
O 	O 	0.47802 0.44963 0.05214 -0.47400
O 	O 	0.45932 0.52158 0.03978 -0.44800
H 	H 	0.51424 0.60731 0.30912 0.20500
H 	H 	0.46129 0.59385 0.33256 0.21100
O 	O 	0.00601 0.54947 0.09058 -0.47900
O 	O 	0.04614 0.59358 0.04587 -0.43100
C 	C 	0.03473 0.63371 0.22287 0.30200
C 	C 	0.36571 0.56947 0.29211 0.32800
C 	C 	0.08103 0.53042 0.25711 0.31500
C 	C 	0.13070 0.53419 0.11701 0.34500
C 	C 	0.44449 0.47852 0.04944 0.33300
C 	C 	0.03320 0.58872 0.08229 0.30600
C 	C 	0.16229 0.71620 0.12938 -0.07700
C 	C 	0.12017 0.67735 0.13709 0.01200
C 	C 	0.09721 0.67497 0.17521 -0.02200
C 	C 	0.05470 0.64296 0.18331 -0.07200
C 	C 	0.03278 0.61739 0.15258 0.01000
C 	C 	0.05471 0.62020 0.11422 -0.08700
C 	C 	0.10047 0.64673 0.10680 -0.01300
H 	H 	0.16781 0.71005 0.06762 0.04500
H 	H 	0.19829 0.69740 0.12421 0.04300
H 	H 	0.11337 0.69716 0.19840 0.04300
H 	H 	0.49903 0.59406 0.15854 0.03300
H 	H 	0.11883 0.64559 0.07742 0.04200
C 	C 	0.27554 0.51321 0.22998 0.00800
C 	C 	0.31315 0.51845 0.25082 -0.01400
C 	C 	0.32240 0.56480 0.27484 -0.07100
C 	C 	0.29653 0.60706 0.27613 -0.02700
C 	C 	0.25819 0.60219 0.25581 0.03700
C 	C 	0.23418 0.64922 0.25377 -0.08900
C 	C 	0.21947 0.64844 0.21524 -0.07400
C 	C 	0.17670 0.61196 0.20525 0.00500
C 	C 	0.17489 0.59040 0.16660 -0.01200
C 	C 	0.13929 0.55135 0.15713 -0.08800
C 	C 	0.11016 0.53044 0.18700 0.03800
C 	C 	0.11271 0.55129 0.22564 -0.09900
C 	C 	0.14112 0.59548 0.23426 -0.00400
C 	C 	0.24439 0.55343 0.23738 -0.06600
C 	C 	0.27959 0.47553 0.19270 0.02200
C 	C 	0.31129 0.50659 0.09884 -0.07400
C 	C 	0.30476 0.47693 0.12565 0.04900
C 	C 	0.27275 0.49241 0.16108 -0.07300
H 	H 	0.33843 0.48829 0.24595 0.03100
H 	H 	0.30724 0.64368 0.29187 0.04000
H 	H 	0.20236 0.65927 0.27857 0.05000
H 	H 	0.26189 0.68134 0.25783 0.04700
H 	H 	0.20800 0.68671 0.21655 0.04300
H 	H 	0.25343 0.64120 0.19167 0.04400
H 	H 	0.20053 0.60485 0.14417 0.04100
H 	H 	0.13896 0.61351 0.26393 0.04500
H 	H 	0.21343 0.54588 0.22403 0.05900
H 	H 	0.36393 0.53377 0.05585 0.03800
H 	H 	0.28604 0.53645 0.10259 0.05700
H 	H 	0.25138 0.52512 0.16496 0.05400
Mg	Mg	0.97494 0.54210 0.59520 1.47300
Mg	Mg	0.03429 0.48090 0.41080 1.47200
Mg	Mg	0.02673 0.53321 0.33692 1.47700
O 	O 	0.01030 0.59052 0.55982 -0.44000
O 	O 	0.54570 0.66538 0.58634 -0.25000
H 	H 	0.39108 0.55160 0.66760 0.15600
O 	O 	0.36131 0.55217 0.65618 -0.34600
O 	O 	0.40981 0.57759 0.60388 -0.45800
O 	O 	0.03962 0.50636 0.58304 -0.47500
O 	O 	0.08733 0.54412 0.62658 -0.42700
O 	O 	0.49078 0.57861 0.64703 -0.77000
O 	O 	0.08696 0.51151 0.44494 -0.44200
O 	O 	0.47802 0.44963 0.38548 -0.47000
O 	O 	0.45932 0.52158 0.37311 -0.44200
H 	H 	0.51424 0.60731 0.64245 0.20500
H 	H 	0.46129 0.59385 0.66589 0.21100
O 	O 	0.00601 0.54947 0.42392 -0.47800
O 	O 	0.04614 0.59358 0.37920 -0.42300
C 	C 	0.03473 0.63371 0.55621 0.30200
C 	C 	0.36571 0.56947 0.62544 0.32800
C 	C 	0.08103 0.53042 0.59045 0.31500
C 	C 	0.13070 0.53419 0.45035 0.34500
C 	C 	0.44449 0.47852 0.38277 0.33500
C 	C 	0.03320 0.58872 0.41563 0.30600
C 	C 	0.16229 0.71620 0.46271 -0.07700
C 	C 	0.12017 0.67735 0.47042 0.01300
C 	C 	0.09721 0.67497 0.50855 -0.02200
C 	C 	0.05470 0.64296 0.51664 -0.07200
C 	C 	0.03278 0.61739 0.48591 0.01100
C 	C 	0.05471 0.62020 0.44755 -0.08500
C 	C 	0.10047 0.64673 0.44013 -0.01300
H 	H 	0.16781 0.71005 0.40095 0.04900
H 	H 	0.19829 0.69740 0.45754 0.04500
H 	H 	0.11337 0.69716 0.53173 0.04300
H 	H 	0.49903 0.59406 0.49188 0.03400
H 	H 	0.11883 0.64559 0.41076 0.04400
C 	C 	0.27554 0.51321 0.56331 0.00800
C 	C 	0.31315 0.51845 0.58415 -0.01400
C 	C 	0.32240 0.56480 0.60818 -0.07100
C 	C 	0.29653 0.60706 0.60946 -0.02700
C 	C 	0.25819 0.60219 0.58915 0.03700
C 	C 	0.23418 0.64922 0.58710 -0.08900
C 	C 	0.21947 0.64844 0.54857 -0.07400
C 	C 	0.17670 0.61196 0.53858 0.00600
C 	C 	0.17489 0.59040 0.49994 -0.01300
C 	C 	0.13929 0.55135 0.49046 -0.08800
C 	C 	0.11016 0.53044 0.52033 0.03800
C 	C 	0.11271 0.55129 0.55897 -0.09900
C 	C 	0.14112 0.59548 0.56760 -0.00400
C 	C 	0.24439 0.55343 0.57071 -0.06600
C 	C 	0.27959 0.47553 0.52603 0.02200
C 	C 	0.31129 0.50659 0.43218 -0.07200
C 	C 	0.30476 0.47693 0.45898 0.04900
C 	C 	0.27275 0.49241 0.49442 -0.07200
H 	H 	0.33843 0.48829 0.57928 0.03100
H 	H 	0.30724 0.64368 0.62520 0.04000
H 	H 	0.20236 0.65927 0.61190 0.05000
H 	H 	0.26189 0.68134 0.59116 0.04700
H 	H 	0.20800 0.68671 0.54988 0.04300
H 	H 	0.25343 0.64120 0.52500 0.04400
H 	H 	0.20053 0.60485 0.47750 0.04200
H 	H 	0.13896 0.61351 0.59726 0.04500
H 	H 	0.21343 0.54588 0.55736 0.05900
H 	H 	0.36393 0.53377 0.38918 0.04100
H 	H 	0.28604 0.53645 0.43592 0.05800
H 	H 	0.25138 0.52512 0.49829 0.05400
Mg	Mg	0.97494 0.54210 0.92854 1.47300
Mg	Mg	0.03429 0.48090 0.74413 1.47200
Mg	Mg	0.02673 0.53321 0.67025 1.47700
O 	O 	0.01030 0.59052 0.89315 -0.43900
O 	O 	0.54570 0.66538 0.91968 -0.24600
H 	H 	0.39108 0.55160 0.00093 0.13200
O 	O 	0.36131 0.55217 0.98951 -0.32100
O 	O 	0.40981 0.57759 0.93721 -0.45400
O 	O 	0.03962 0.50636 0.91637 -0.47400
O 	O 	0.08733 0.54412 0.95991 -0.41900
O 	O 	0.49078 0.57861 0.98037 -0.76800
O 	O 	0.08696 0.51151 0.77828 -0.44200
O 	O 	0.47802 0.44963 0.71881 -0.47000
O 	O 	0.45932 0.52158 0.70645 -0.44200
H 	H 	0.51424 0.60731 0.97579 0.20800
H 	H 	0.46129 0.59385 0.99923 0.22000
O 	O 	0.00601 0.54947 0.75725 -0.47800
O 	O 	0.04614 0.59358 0.71253 -0.42300
C 	C 	0.03473 0.63371 0.88954 0.30100
C 	C 	0.36571 0.56947 0.95878 0.32100
C 	C 	0.08103 0.53042 0.92378 0.31400
C 	C 	0.13070 0.53419 0.78368 0.34500
C 	C 	0.44449 0.47852 0.71610 0.33500
C 	C 	0.03320 0.58872 0.74896 0.30500
C 	C 	0.16229 0.71620 0.79605 -0.07700
C 	C 	0.12017 0.67735 0.80375 0.01300
C 	C 	0.09721 0.67497 0.84188 -0.02300
C 	C 	0.05470 0.64296 0.84998 -0.07200
C 	C 	0.03278 0.61739 0.81925 0.01100
C 	C 	0.05471 0.62020 0.78089 -0.08500
C 	C 	0.10047 0.64673 0.77347 -0.01400
H 	H 	0.16781 0.71005 0.73428 0.04900
H 	H 	0.19829 0.69740 0.79087 0.04500
H 	H 	0.11337 0.69716 0.86507 0.04400
H 	H 	0.49903 0.59406 0.82521 0.03400
H 	H 	0.11883 0.64559 0.74409 0.04400
C 	C 	0.27554 0.51321 0.89664 0.01000
C 	C 	0.31315 0.51845 0.91748 -0.01500
C 	C 	0.32240 0.56480 0.94151 -0.06600
C 	C 	0.29653 0.60706 0.94279 -0.02800
C 	C 	0.25819 0.60219 0.92248 0.04000
C 	C 	0.23418 0.64922 0.92044 -0.09100
C 	C 	0.21947 0.64844 0.88191 -0.07400
C 	C 	0.17670 0.61196 0.87191 0.00600
C 	C 	0.17489 0.59040 0.83327 -0.01300
C 	C 	0.13929 0.55135 0.82379 -0.08700
C 	C 	0.11016 0.53044 0.85366 0.03800
C 	C 	0.11271 0.55129 0.89230 -0.09700
C 	C 	0.14112 0.59548 0.90093 -0.00500
C 	C 	0.24439 0.55343 0.90404 -0.06600
C 	C 	0.27959 0.47553 0.85937 0.02200
C 	C 	0.31129 0.50659 0.76551 -0.07200
C 	C 	0.30476 0.47693 0.79231 0.04900
C 	C 	0.27275 0.49241 0.82775 -0.07200
H 	H 	0.33843 0.48829 0.91261 0.03300
H 	H 	0.30724 0.64368 0.95854 0.04400
H 	H 	0.20236 0.65927 0.94523 0.05400
H 	H 	0.26189 0.68134 0.92449 0.04900
H 	H 	0.20800 0.68671 0.88322 0.04400
H 	H 	0.25343 0.64120 0.85834 0.04400
H 	H 	0.20053 0.60485 0.81083 0.04200
H 	H 	0.13896 0.61351 0.93060 0.04700
H 	H 	0.21343 0.54588 0.89070 0.05900
H 	H 	0.36393 0.53377 0.72251 0.04100
H 	H 	0.28604 0.53645 0.76926 0.05800
H 	H 	0.25138 0.52512 0.83163 0.05400
Mg	Mg	0.47494 0.04210 0.26187 1.47100
Mg	Mg	0.52673 0.03321 0.00359 1.47500
O 	O 	0.51030 0.09052 0.22649 -0.43600
O 	O 	0.04570 0.16538 0.25301 -0.25100
H 	H 	0.89108 0.05160 0.33426 0.15500
O 	O 	0.86131 0.05217 0.32284 -0.34800
O 	O 	0.90981 0.07759 0.27054 -0.45600
O 	O 	0.58733 0.04412 0.29324 -0.42800
O 	O 	0.99078 0.07861 0.31370 -0.75700
O 	O 	0.43815 0.48790 0.28760 -0.47200
O 	O 	0.50723 0.46711 0.30347 -0.44600
O 	O 	0.63733 0.42352 0.07931 -0.24300
O 	O 	0.55923 0.41085 0.06591 -0.45100
O 	O 	0.66451 0.54552 0.08827 -0.34600
O 	O 	0.58696 0.01151 0.11161 -0.44500
O 	O 	0.95932 0.02158 0.03978 -0.45200
H 	H 	0.01424 0.10731 0.30912 0.19500
H 	H 	0.96129 0.09385 0.33256 0.21100
O 	O 	0.56893 0.49227 0.02527 -0.77900
O 	O 	0.50601 0.04947 0.09058 -0.47700
O 	O 	0.54614 0.09358 0.04587 -0.42900
H 	H 	0.65920 0.53573 0.06128 0.14900
H 	H 	0.57610 0.45934 0.00727 0.21200
H 	H 	0.60182 0.51009 0.02624 0.19600
C 	C 	0.53473 0.13371 0.22287 0.30500
C 	C 	0.86571 0.06947 0.29211 0.32500
C 	C 	0.58103 0.03042 0.25711 0.31100
C 	C 	0.46304 0.45441 0.29500 0.34500
C 	C 	0.59852 0.39361 0.07270 0.29000
C 	C 	0.63070 0.03419 0.11701 0.34100
C 	C 	0.53320 0.08872 0.08229 0.31000
C 	C 	0.53182 0.29331 0.12171 0.01000
C 	C 	0.54151 0.33486 0.10515 -0.02000
C 	C 	0.59007 0.34600 0.08533 -0.05800
C 	C 	0.62955 0.31520 0.08244 -0.03600
C 	C 	0.62023 0.27219 0.09794 0.03800
C 	C 	0.66368 0.23927 0.09458 -0.08800
C 	C 	0.66229 0.21620 0.12938 -0.07600
C 	C 	0.62017 0.17735 0.13709 0.01000
C 	C 	0.59721 0.17497 0.17521 -0.01900
C 	C 	0.55470 0.14296 0.18331 -0.07800
C 	C 	0.53278 0.11739 0.15258 0.02900
C 	C 	0.55471 0.12020 0.11422 -0.09200
C 	C 	0.60047 0.14673 0.10680 -0.01000
C 	C 	0.57033 0.26060 0.11524 -0.06900
C 	C 	0.48779 0.29250 0.15406 0.02000
C 	C 	0.94291 0.31441 0.15520 -0.05300
C 	C 	0.91492 0.33993 0.19014 -0.03100
C 	C 	0.93306 0.34526 0.22333 -0.01300
C 	C 	0.92084 0.38716 0.25350 -0.00000
C 	C 	0.95115 0.40079 0.28051 -0.10000
C 	C 	0.98165 0.36480 0.28441 0.04200
C 	C 	0.49126 0.32100 0.25594 -0.07400
C 	C 	0.47165 0.31450 0.22320 0.04700
C 	C 	0.49690 0.28566 0.18852 -0.07300
H 	H 	0.51234 0.36151 0.11090 0.03300
H 	H 	0.66737 0.32488 0.06848 0.04500
H 	H 	0.66781 0.21005 0.06762 0.04600
H 	H 	0.69922 0.26263 0.09118 0.04500
H 	H 	0.69829 0.19740 0.12421 0.04300
H 	H 	0.66141 0.24718 0.15524 0.04500
H 	H 	0.61337 0.19716 0.19840 0.04200
H 	H 	0.99903 0.09406 0.15854 0.04600
H 	H 	0.61883 0.14559 0.07742 0.04100
H 	H 	0.55990 0.22857 0.12699 0.05800
H 	H 	0.93327 0.31764 0.12909 0.04100
H 	H 	0.88379 0.36151 0.19055 0.03000
H 	H 	0.89537 0.41385 0.25141 0.03400
H 	H 	0.50334 0.37348 0.30641 0.04200
H 	H 	0.51969 0.29666 0.25690 0.05600
H 	H 	0.53019 0.26717 0.18849 0.05300
C 	C 	0.77554 0.01321 0.22998 0.00100
C 	C 	0.81315 0.01845 0.25082 -0.02700
C 	C 	0.82240 0.06480 0.27484 -0.06700
C 	C 	0.79653 0.10706 0.27613 -0.02800
C 	C 	0.75819 0.10219 0.25581 0.03700
C 	C 	0.73418 0.14922 0.25377 -0.08900
C 	C 	0.71947 0.14844 0.21524 -0.07500
C 	C 	0.67670 0.11196 0.20525 0.00800
C 	C 	0.67489 0.09040 0.16660 -0.01500
C 	C 	0.63929 0.05135 0.15713 -0.08300
C 	C 	0.61016 0.03044 0.18700 0.02200
C 	C 	0.61271 0.05129 0.22564 -0.09300
C 	C 	0.64112 0.09548 0.23426 -0.00700
C 	C 	0.74439 0.05343 0.23738 -0.06500
C 	C 	0.80517 0.43087 0.18541 -0.05200
C 	C 	0.83284 0.41110 0.14857 -0.03200
C 	C 	0.83759 0.43795 0.12007 -0.01500
C 	C 	0.87963 0.43260 0.08967 -0.00600
C 	C 	0.89177 0.46978 0.06822 -0.09800
C 	C 	0.85577 0.50453 0.07138 0.02800
H 	H 	0.80724 0.14368 0.29187 0.04100
H 	H 	0.70236 0.15927 0.27857 0.05000
H 	H 	0.76189 0.18134 0.25783 0.04700
H 	H 	0.70800 0.18671 0.21655 0.04300
H 	H 	0.75343 0.14120 0.19167 0.04400
H 	H 	0.70053 0.10485 0.14417 0.04200
H 	H 	0.58470 0.49855 0.18023 0.03100
H 	H 	0.63896 0.11351 0.26393 0.04600
H 	H 	0.71343 0.04588 0.22403 0.05700
H 	H 	0.80831 0.41459 0.20864 0.04000
H 	H 	0.85571 0.37918 0.14364 0.03100
H 	H 	0.90666 0.40478 0.08702 0.03500
H 	H 	0.86393 0.03377 0.05585 0.03900
H 	H 	0.78604 0.03645 0.10259 0.05800
H 	H 	0.75138 0.02512 0.16496 0.04600
Mg	Mg	0.47494 0.04210 0.59520 1.47100
Mg	Mg	0.52673 0.03321 0.33692 1.47700
O 	O 	0.51030 0.09052 0.55982 -0.43600
O 	O 	0.04570 0.16538 0.58634 -0.25100
H 	H 	0.89108 0.05160 0.66760 0.15500
O 	O 	0.86131 0.05217 0.65618 -0.34800
O 	O 	0.90981 0.07759 0.60388 -0.45700
O 	O 	0.58733 0.04412 0.62658 -0.42800
O 	O 	0.99078 0.07861 0.64703 -0.75800
O 	O 	0.43815 0.48790 0.62094 -0.47200
O 	O 	0.50723 0.46711 0.63680 -0.44600
O 	O 	0.63733 0.42352 0.41264 -0.24100
O 	O 	0.55923 0.41085 0.39925 -0.44800
O 	O 	0.66451 0.54552 0.42161 -0.34400
O 	O 	0.58696 0.01151 0.44494 -0.44500
O 	O 	0.95932 0.02158 0.37311 -0.44600
H 	H 	0.01424 0.10731 0.64245 0.19500
H 	H 	0.96129 0.09385 0.66589 0.21100
O 	O 	0.56893 0.49227 0.35861 -0.77700
O 	O 	0.50601 0.04947 0.42392 -0.47700
O 	O 	0.54614 0.09358 0.37920 -0.42100
H 	H 	0.65920 0.53573 0.39461 0.15100
H 	H 	0.57610 0.45934 0.34061 0.21900
H 	H 	0.60182 0.51009 0.35957 0.20000
C 	C 	0.53473 0.13371 0.55621 0.30500
C 	C 	0.86571 0.06947 0.62544 0.32500
C 	C 	0.58103 0.03042 0.59045 0.31100
C 	C 	0.46304 0.45441 0.62833 0.34500
C 	C 	0.59852 0.39361 0.40603 0.29100
C 	C 	0.63070 0.03419 0.45035 0.34100
C 	C 	0.53320 0.08872 0.41563 0.30900
C 	C 	0.53182 0.29331 0.45504 0.01100
C 	C 	0.54151 0.33486 0.43848 -0.01900
C 	C 	0.59007 0.34600 0.41867 -0.05600
C 	C 	0.62955 0.31520 0.41578 -0.03500
C 	C 	0.62023 0.27219 0.43127 0.04000
C 	C 	0.66368 0.23927 0.42791 -0.09000
C 	C 	0.66229 0.21620 0.46271 -0.07600
C 	C 	0.62017 0.17735 0.47042 0.01000
C 	C 	0.59721 0.17497 0.50855 -0.01900
C 	C 	0.55470 0.14296 0.51664 -0.07700
C 	C 	0.53278 0.11739 0.48591 0.02800
C 	C 	0.55471 0.12020 0.44755 -0.09100
C 	C 	0.60047 0.14673 0.44013 -0.01000
C 	C 	0.57033 0.26060 0.44857 -0.06900
C 	C 	0.48779 0.29250 0.48739 0.02100
C 	C 	0.94291 0.31441 0.48853 -0.05300
C 	C 	0.91492 0.33993 0.52347 -0.03100
C 	C 	0.93306 0.34526 0.55666 -0.01300
C 	C 	0.92084 0.38716 0.58683 -0.00000
C 	C 	0.95115 0.40079 0.61385 -0.10000
C 	C 	0.98165 0.36480 0.61774 0.04100
C 	C 	0.49126 0.32100 0.58927 -0.07400
C 	C 	0.47165 0.31450 0.55653 0.04700
C 	C 	0.49690 0.28566 0.52185 -0.07300
H 	H 	0.51234 0.36151 0.44423 0.03300
H 	H 	0.66737 0.32488 0.40181 0.04800
H 	H 	0.66781 0.21005 0.40095 0.05000
H 	H 	0.69922 0.26263 0.42451 0.04700
H 	H 	0.69829 0.19740 0.45754 0.04400
H 	H 	0.66141 0.24718 0.48857 0.04500
H 	H 	0.61337 0.19716 0.53173 0.04200
H 	H 	0.99903 0.09406 0.49188 0.04600
H 	H 	0.61883 0.14559 0.41076 0.04300
H 	H 	0.55990 0.22857 0.46033 0.05800
H 	H 	0.93327 0.31764 0.46242 0.04300
H 	H 	0.88379 0.36151 0.52388 0.03000
H 	H 	0.89537 0.41385 0.58474 0.03400
H 	H 	0.50334 0.37348 0.63974 0.04200
H 	H 	0.51969 0.29666 0.59024 0.05600
H 	H 	0.53019 0.26717 0.52182 0.05300
C 	C 	0.77554 0.01321 0.56331 0.00100
C 	C 	0.81315 0.01845 0.58415 -0.02700
C 	C 	0.82240 0.06480 0.60818 -0.06700
C 	C 	0.79653 0.10706 0.60946 -0.02800
C 	C 	0.75819 0.10219 0.58915 0.03600
C 	C 	0.73418 0.14922 0.58710 -0.08900
C 	C 	0.71947 0.14844 0.54857 -0.07500
C 	C 	0.67670 0.11196 0.53858 0.00800
C 	C 	0.67489 0.09040 0.49994 -0.01500
C 	C 	0.63929 0.05135 0.49046 -0.08300
C 	C 	0.61016 0.03044 0.52033 0.02200
C 	C 	0.61271 0.05129 0.55897 -0.09300
C 	C 	0.64112 0.09548 0.56760 -0.00700
C 	C 	0.74439 0.05343 0.57071 -0.06500
C 	C 	0.80517 0.43087 0.51874 -0.05100
C 	C 	0.83284 0.41110 0.48190 -0.03200
C 	C 	0.83759 0.43795 0.45341 -0.01300
C 	C 	0.87963 0.43260 0.42301 -0.00500
C 	C 	0.89177 0.46978 0.40155 -0.09600
C 	C 	0.85577 0.50453 0.40471 0.03000
H 	H 	0.80724 0.14368 0.62520 0.04100
H 	H 	0.70236 0.15927 0.61190 0.05000
H 	H 	0.76189 0.18134 0.59116 0.04700
H 	H 	0.70800 0.18671 0.54988 0.04300
H 	H 	0.75343 0.14120 0.52500 0.04500
H 	H 	0.70053 0.10485 0.47750 0.04200
H 	H 	0.58470 0.49855 0.51356 0.03100
H 	H 	0.63896 0.11351 0.59726 0.04600
H 	H 	0.71343 0.04588 0.55736 0.05700
H 	H 	0.80831 0.41459 0.54198 0.04000
H 	H 	0.85571 0.37918 0.47698 0.03200
H 	H 	0.90666 0.40478 0.42035 0.03700
H 	H 	0.86393 0.03377 0.38918 0.04300
H 	H 	0.78604 0.03645 0.43592 0.05900
H 	H 	0.75138 0.02512 0.49829 0.04600
Mg	Mg	0.47494 0.04210 0.92854 1.47200
Mg	Mg	0.52673 0.03321 0.67025 1.47700
O 	O 	0.51030 0.09052 0.89315 -0.43600
O 	O 	0.04570 0.16538 0.91968 -0.24800
H 	H 	0.89108 0.05160 0.00093 0.13200
O 	O 	0.86131 0.05217 0.98951 -0.32200
O 	O 	0.90981 0.07759 0.93721 -0.45300
O 	O 	0.58733 0.04412 0.95991 -0.42000
O 	O 	0.99078 0.07861 0.98037 -0.75500
O 	O 	0.43815 0.48790 0.95427 -0.46700
O 	O 	0.50723 0.46711 0.97014 -0.43700
O 	O 	0.63733 0.42352 0.74598 -0.24100
O 	O 	0.55923 0.41085 0.73258 -0.44800
O 	O 	0.66451 0.54552 0.75494 -0.34400
O 	O 	0.58696 0.01151 0.77828 -0.44500
O 	O 	0.95932 0.02158 0.70645 -0.44600
H 	H 	0.01424 0.10731 0.97579 0.19900
H 	H 	0.96129 0.09385 0.99923 0.21900
O 	O 	0.56893 0.49227 0.69194 -0.77700
O 	O 	0.50601 0.04947 0.75725 -0.47700
O 	O 	0.54614 0.09358 0.71253 -0.42100
H 	H 	0.65920 0.53573 0.72795 0.15100
H 	H 	0.57610 0.45934 0.67394 0.21900
H 	H 	0.60182 0.51009 0.69290 0.20000
C 	C 	0.53473 0.13371 0.88954 0.30400
C 	C 	0.86571 0.06947 0.95878 0.31900
C 	C 	0.58103 0.03042 0.92378 0.31100
C 	C 	0.46304 0.45441 0.96166 0.34700
C 	C 	0.59852 0.39361 0.73937 0.29100
C 	C 	0.63070 0.03419 0.78368 0.34100
C 	C 	0.53320 0.08872 0.74896 0.30900
C 	C 	0.53182 0.29331 0.78838 0.01100
C 	C 	0.54151 0.33486 0.77182 -0.01900
C 	C 	0.59007 0.34600 0.75200 -0.05600
C 	C 	0.62955 0.31520 0.74911 -0.03500
C 	C 	0.62023 0.27219 0.76461 0.04000
C 	C 	0.66368 0.23927 0.76125 -0.08900
C 	C 	0.66229 0.21620 0.79605 -0.07600
C 	C 	0.62017 0.17735 0.80375 0.01100
C 	C 	0.59721 0.17497 0.84188 -0.02000
C 	C 	0.55470 0.14296 0.84998 -0.07700
C 	C 	0.53278 0.11739 0.81925 0.02800
C 	C 	0.55471 0.12020 0.78089 -0.09100
C 	C 	0.60047 0.14673 0.77347 -0.01000
C 	C 	0.57033 0.26060 0.78190 -0.06900
C 	C 	0.48779 0.29250 0.82073 0.02100
C 	C 	0.94291 0.31441 0.82187 -0.05200
C 	C 	0.91492 0.33993 0.85681 -0.03100
C 	C 	0.93306 0.34526 0.88999 -0.01200
C 	C 	0.92084 0.38716 0.92016 -0.00000
C 	C 	0.95115 0.40079 0.94718 -0.09700
C 	C 	0.98165 0.36480 0.95108 0.04200
C 	C 	0.49126 0.32100 0.92261 -0.07200
C 	C 	0.47165 0.31450 0.88987 0.04700
C 	C 	0.49690 0.28566 0.85518 -0.07200
H 	H 	0.51234 0.36151 0.77756 0.03300
H 	H 	0.66737 0.32488 0.73514 0.04800
H 	H 	0.66781 0.21005 0.73428 0.04900
H 	H 	0.69922 0.26263 0.75785 0.04700
H 	H 	0.69829 0.19740 0.79087 0.04500
H 	H 	0.66141 0.24718 0.82190 0.04600
H 	H 	0.61337 0.19716 0.86507 0.04300
H 	H 	0.99903 0.09406 0.82521 0.04600
H 	H 	0.61883 0.14559 0.74409 0.04300
H 	H 	0.55990 0.22857 0.79366 0.05800
H 	H 	0.93327 0.31764 0.79575 0.04300
H 	H 	0.88379 0.36151 0.85721 0.03100
H 	H 	0.89537 0.41385 0.91808 0.03500
H 	H 	0.50334 0.37348 0.97308 0.04800
H 	H 	0.51969 0.29666 0.92357 0.05800
H 	H 	0.53019 0.26717 0.85516 0.05300
C 	C 	0.77554 0.01321 0.89664 0.00300
C 	C 	0.81315 0.01845 0.91748 -0.02700
C 	C 	0.82240 0.06480 0.94151 -0.06200
C 	C 	0.79653 0.10706 0.94279 -0.02900
C 	C 	0.75819 0.10219 0.92248 0.03900
C 	C 	0.73418 0.14922 0.92044 -0.09000
C 	C 	0.71947 0.14844 0.88191 -0.07500
C 	C 	0.67670 0.11196 0.87191 0.00800
C 	C 	0.67489 0.09040 0.83327 -0.01600
C 	C 	0.63929 0.05135 0.82379 -0.08300
C 	C 	0.61016 0.03044 0.85366 0.02200
C 	C 	0.61271 0.05129 0.89230 -0.09200
C 	C 	0.64112 0.09548 0.90093 -0.00800
C 	C 	0.74439 0.05343 0.90404 -0.06500
C 	C 	0.80517 0.43087 0.85207 -0.05100
C 	C 	0.83284 0.41110 0.81524 -0.03100
C 	C 	0.83759 0.43795 0.78674 -0.01400
C 	C 	0.87963 0.43260 0.75634 -0.00500
C 	C 	0.89177 0.46978 0.73489 -0.09600
C 	C 	0.85577 0.50453 0.73805 0.03000
H 	H 	0.80724 0.14368 0.95854 0.04500
H 	H 	0.70236 0.15927 0.94523 0.05400
H 	H 	0.76189 0.18134 0.92449 0.05000
H 	H 	0.70800 0.18671 0.88322 0.04400
H 	H 	0.75343 0.14120 0.85834 0.04500
H 	H 	0.70053 0.10485 0.81083 0.04300
H 	H 	0.58470 0.49855 0.84689 0.03100
H 	H 	0.63896 0.11351 0.93060 0.04800
H 	H 	0.71343 0.04588 0.89070 0.05800
H 	H 	0.80831 0.41459 0.87531 0.04100
H 	H 	0.85571 0.37918 0.81031 0.03200
H 	H 	0.90666 0.40478 0.75368 0.03700
H 	H 	0.86393 0.03377 0.72251 0.04300
H 	H 	0.78604 0.03645 0.76926 0.05900
H 	H 	0.75138 0.02512 0.83163 0.04700
Mg	Mg	0.47494 0.54210 0.26187 1.47200
Mg	Mg	0.53429 0.48090 0.07747 1.47300
Mg	Mg	0.52673 0.53321 0.00359 1.47600
O 	O 	0.51030 0.59052 0.22649 -0.43500
O 	O 	0.04570 0.66538 0.25301 -0.25100
H 	H 	0.89108 0.55160 0.33426 0.15600
O 	O 	0.86131 0.55217 0.32284 -0.34600
O 	O 	0.90981 0.57759 0.27054 -0.45500
O 	O 	0.53962 0.50636 0.24970 -0.47100
O 	O 	0.58733 0.54412 0.29324 -0.42600
O 	O 	0.99078 0.57861 0.31370 -0.75500
O 	O 	0.58696 0.51151 0.11161 -0.44000
O 	O 	0.97802 0.44963 0.05214 -0.46600
O 	O 	0.95932 0.52158 0.03978 -0.44200
H 	H 	0.01424 0.60731 0.30912 0.19400
H 	H 	0.96129 0.59385 0.33256 0.21100
O 	O 	0.50601 0.54947 0.09058 -0.47400
O 	O 	0.54614 0.59358 0.04587 -0.42800
C 	C 	0.53473 0.63371 0.22287 0.30500
C 	C 	0.86571 0.56947 0.29211 0.32700
C 	C 	0.58103 0.53042 0.25711 0.31400
C 	C 	0.63070 0.53419 0.11701 0.34400
C 	C 	0.94449 0.47852 0.04944 0.33300
C 	C 	0.53320 0.58872 0.08229 0.30900
C 	C 	0.66229 0.71620 0.12938 -0.07600
C 	C 	0.62017 0.67735 0.13709 0.01000
C 	C 	0.59721 0.67497 0.17521 -0.01900
C 	C 	0.55470 0.64296 0.18331 -0.07700
C 	C 	0.53278 0.61739 0.15258 0.02900
C 	C 	0.55471 0.62020 0.11422 -0.09200
C 	C 	0.60047 0.64673 0.10680 -0.01000
H 	H 	0.66781 0.71005 0.06762 0.04600
H 	H 	0.69829 0.69740 0.12421 0.04300
H 	H 	0.61337 0.69716 0.19840 0.04200
H 	H 	0.99903 0.59406 0.15854 0.04800
H 	H 	0.61883 0.64559 0.07742 0.04100
C 	C 	0.77554 0.51321 0.22998 0.00800
C 	C 	0.81315 0.51845 0.25082 -0.01400
C 	C 	0.82240 0.56480 0.27484 -0.07000
C 	C 	0.79653 0.60706 0.27613 -0.02700
C 	C 	0.75819 0.60219 0.25581 0.03700
C 	C 	0.73418 0.64922 0.25377 -0.08900
C 	C 	0.71947 0.64844 0.21524 -0.07400
C 	C 	0.67670 0.61196 0.20525 0.00600
C 	C 	0.67489 0.59040 0.16660 -0.01300
C 	C 	0.63929 0.55135 0.15713 -0.08700
C 	C 	0.61016 0.53044 0.18700 0.03800
C 	C 	0.61271 0.55129 0.22564 -0.09800
C 	C 	0.64112 0.59548 0.23426 -0.00400
C 	C 	0.74439 0.55343 0.23738 -0.06600
C 	C 	0.77959 0.47553 0.19270 0.02200
C 	C 	0.81129 0.50659 0.09884 -0.07300
C 	C 	0.80476 0.47693 0.12565 0.04800
C 	C 	0.77275 0.49241 0.16108 -0.07200
H 	H 	0.83843 0.48829 0.24595 0.03200
H 	H 	0.80724 0.64368 0.29187 0.04100
H 	H 	0.70236 0.65927 0.27857 0.05000
H 	H 	0.76189 0.68134 0.25783 0.04700
H 	H 	0.70800 0.68671 0.21655 0.04300
H 	H 	0.75343 0.64120 0.19167 0.04400
H 	H 	0.70053 0.60485 0.14417 0.04100
H 	H 	0.63896 0.61351 0.26393 0.04500
H 	H 	0.71343 0.54588 0.22403 0.05900
H 	H 	0.86393 0.53377 0.05585 0.03800
H 	H 	0.78604 0.53645 0.10259 0.05700
H 	H 	0.75138 0.52512 0.16496 0.05400
Mg	Mg	0.47494 0.54210 0.59520 1.47200
Mg	Mg	0.53429 0.48090 0.41080 1.47300
Mg	Mg	0.52673 0.53321 0.33692 1.47800
O 	O 	0.51030 0.59052 0.55982 -0.43500
O 	O 	0.04570 0.66538 0.58634 -0.25100
H 	H 	0.89108 0.55160 0.66760 0.15600
O 	O 	0.86131 0.55217 0.65618 -0.34600
O 	O 	0.90981 0.57759 0.60388 -0.45500
O 	O 	0.53962 0.50636 0.58304 -0.47100
O 	O 	0.58733 0.54412 0.62658 -0.42600
O 	O 	0.99078 0.57861 0.64703 -0.75500
O 	O 	0.58696 0.51151 0.44494 -0.44000
O 	O 	0.97802 0.44963 0.38548 -0.46200
O 	O 	0.95932 0.52158 0.37311 -0.43600
H 	H 	0.01424 0.60731 0.64245 0.19500
H 	H 	0.96129 0.59385 0.66589 0.21100
O 	O 	0.50601 0.54947 0.42392 -0.47300
O 	O 	0.54614 0.59358 0.37920 -0.42000
C 	C 	0.53473 0.63371 0.55621 0.30500
C 	C 	0.86571 0.56947 0.62544 0.32700
C 	C 	0.58103 0.53042 0.59045 0.31400
C 	C 	0.63070 0.53419 0.45035 0.34500
C 	C 	0.94449 0.47852 0.38277 0.33500
C 	C 	0.53320 0.58872 0.41563 0.30800
C 	C 	0.66229 0.71620 0.46271 -0.07600
C 	C 	0.62017 0.67735 0.47042 0.01100
C 	C 	0.59721 0.67497 0.50855 -0.02000
C 	C 	0.55470 0.64296 0.51664 -0.07700
C 	C 	0.53278 0.61739 0.48591 0.02800
C 	C 	0.55471 0.62020 0.44755 -0.09000
C 	C 	0.60047 0.64673 0.44013 -0.01100
H 	H 	0.66781 0.71005 0.40095 0.05000
H 	H 	0.69829 0.69740 0.45754 0.04500
H 	H 	0.61337 0.69716 0.53173 0.04200
H 	H 	0.99903 0.59406 0.49188 0.04800
H 	H 	0.61883 0.64559 0.41076 0.04400
C 	C 	0.77554 0.51321 0.56331 0.00800
C 	C 	0.81315 0.51845 0.58415 -0.01400
C 	C 	0.82240 0.56480 0.60818 -0.07100
C 	C 	0.79653 0.60706 0.60946 -0.02700
C 	C 	0.75819 0.60219 0.58915 0.03700
C 	C 	0.73418 0.64922 0.58710 -0.08900
C 	C 	0.71947 0.64844 0.54857 -0.07400
C 	C 	0.67670 0.61196 0.53858 0.00600
C 	C 	0.67489 0.59040 0.49994 -0.01300
C 	C 	0.63929 0.55135 0.49046 -0.08700
C 	C 	0.61016 0.53044 0.52033 0.03800
C 	C 	0.61271 0.55129 0.55897 -0.09800
C 	C 	0.64112 0.59548 0.56760 -0.00500
C 	C 	0.74439 0.55343 0.57071 -0.06600
C 	C 	0.77959 0.47553 0.52603 0.02200
C 	C 	0.81129 0.50659 0.43218 -0.07200
C 	C 	0.80476 0.47693 0.45898 0.04800
C 	C 	0.77275 0.49241 0.49442 -0.07200
H 	H 	0.83843 0.48829 0.57928 0.03200
H 	H 	0.80724 0.64368 0.62520 0.04100
H 	H 	0.70236 0.65927 0.61190 0.05000
H 	H 	0.76189 0.68134 0.59116 0.04700
H 	H 	0.70800 0.68671 0.54988 0.04300
H 	H 	0.75343 0.64120 0.52500 0.04500
H 	H 	0.70053 0.60485 0.47750 0.04200
H 	H 	0.63896 0.61351 0.59726 0.04500
H 	H 	0.71343 0.54588 0.55736 0.05900
H 	H 	0.86393 0.53377 0.38918 0.04200
H 	H 	0.78604 0.53645 0.43592 0.05800
H 	H 	0.75138 0.52512 0.49829 0.05400
Mg	Mg	0.47494 0.54210 0.92854 1.47200
Mg	Mg	0.53429 0.48090 0.74413 1.47300
Mg	Mg	0.52673 0.53321 0.67025 1.47800
O 	O 	0.51030 0.59052 0.89315 -0.43400
O 	O 	0.04570 0.66538 0.91968 -0.24800
H 	H 	0.89108 0.55160 0.00093 0.13300
O 	O 	0.86131 0.55217 0.98951 -0.32100
O 	O 	0.90981 0.57759 0.93721 -0.45100
O 	O 	0.53962 0.50636 0.91637 -0.47000
O 	O 	0.58733 0.54412 0.95991 -0.41800
O 	O 	0.99078 0.57861 0.98037 -0.75300
O 	O 	0.58696 0.51151 0.77828 -0.44000
O 	O 	0.97802 0.44963 0.71881 -0.46300
O 	O 	0.95932 0.52158 0.70645 -0.43600
H 	H 	0.01424 0.60731 0.97579 0.19800
H 	H 	0.96129 0.59385 0.99923 0.21900
O 	O 	0.50601 0.54947 0.75725 -0.47300
O 	O 	0.54614 0.59358 0.71253 -0.42000
C 	C 	0.53473 0.63371 0.88954 0.30400
C 	C 	0.86571 0.56947 0.95878 0.32100
C 	C 	0.58103 0.53042 0.92378 0.31300
C 	C 	0.63070 0.53419 0.78368 0.34400
C 	C 	0.94449 0.47852 0.71610 0.33500
C 	C 	0.53320 0.58872 0.74896 0.30800
C 	C 	0.66229 0.71620 0.79605 -0.07600
C 	C 	0.62017 0.67735 0.80375 0.01100
C 	C 	0.59721 0.67497 0.84188 -0.02000
C 	C 	0.55470 0.64296 0.84998 -0.07600
C 	C 	0.53278 0.61739 0.81925 0.02800
C 	C 	0.55471 0.62020 0.78089 -0.09000
C 	C 	0.60047 0.64673 0.77347 -0.01100
H 	H 	0.66781 0.71005 0.73428 0.05000
H 	H 	0.69829 0.69740 0.79087 0.04500
H 	H 	0.61337 0.69716 0.86507 0.04300
H 	H 	0.99903 0.59406 0.82521 0.04800
H 	H 	0.61883 0.64559 0.74409 0.04400
C 	C 	0.77554 0.51321 0.89664 0.01000
C 	C 	0.81315 0.51845 0.91748 -0.01500
C 	C 	0.82240 0.56480 0.94151 -0.06500
C 	C 	0.79653 0.60706 0.94279 -0.02800
C 	C 	0.75819 0.60219 0.92248 0.04000
C 	C 	0.73418 0.64922 0.92044 -0.09100
C 	C 	0.71947 0.64844 0.88191 -0.07400
C 	C 	0.67670 0.61196 0.87191 0.00600
C 	C 	0.67489 0.59040 0.83327 -0.01300
C 	C 	0.63929 0.55135 0.82379 -0.08700
C 	C 	0.61016 0.53044 0.85366 0.03800
C 	C 	0.61271 0.55129 0.89230 -0.09700
C 	C 	0.64112 0.59548 0.90093 -0.00500
C 	C 	0.74439 0.55343 0.90404 -0.06600
C 	C 	0.77959 0.47553 0.85937 0.02200
C 	C 	0.81129 0.50659 0.76551 -0.07200
C 	C 	0.80476 0.47693 0.79231 0.04800
C 	C 	0.77275 0.49241 0.82775 -0.07200
H 	H 	0.83843 0.48829 0.91261 0.03300
H 	H 	0.80724 0.64368 0.95854 0.04500
H 	H 	0.70236 0.65927 0.94523 0.05400
H 	H 	0.76189 0.68134 0.92449 0.05000
H 	H 	0.70800 0.68671 0.88322 0.04400
H 	H 	0.75343 0.64120 0.85834 0.04500
H 	H 	0.70053 0.60485 0.81083 0.04200
H 	H 	0.63896 0.61351 0.93060 0.04800
H 	H 	0.71343 0.54588 0.89070 0.05900
H 	H 	0.86393 0.53377 0.72251 0.04200
H 	H 	0.78604 0.53645 0.76926 0.05800
H 	H 	0.75138 0.52512 0.83163 0.05400
O 	O 	0.16451 0.04552 0.08827 -0.34600
H 	H 	0.15920 0.03573 0.06128 0.14700
H 	H 	0.10182 0.01009 0.02624 0.18800
O 	O 	0.16451 0.04552 0.42161 -0.34500
H 	H 	0.15920 0.03573 0.39461 0.15000
H 	H 	0.10182 0.01009 0.35957 0.19100
O 	O 	0.16451 0.04552 0.75494 -0.34500
H 	H 	0.15920 0.03573 0.72795 0.15000
H 	H 	0.10182 0.01009 0.69290 0.19100
O 	O 	0.66451 0.04552 0.08827 -0.34600
H 	H 	0.65920 0.03573 0.06128 0.14700
H 	H 	0.60182 0.01009 0.02624 0.18700
O 	O 	0.66451 0.04552 0.42161 -0.34500
H 	H 	0.65920 0.03573 0.39461 0.15000
H 	H 	0.60182 0.01009 0.35957 0.19000
O 	O 	0.66451 0.04552 0.75494 -0.34500
H 	H 	0.65920 0.03573 0.72795 0.15000
H 	H 	0.60182 0.01009 0.69290 0.19000
C 	C 	0.16368 0.73927 0.09458 -0.08700
H 	H 	0.19922 0.76263 0.09118 0.04500
H 	H 	0.16141 0.74718 0.15524 0.04500
C 	C 	0.16368 0.73927 0.42791 -0.08800
H 	H 	0.19922 0.76263 0.42451 0.04700
H 	H 	0.16141 0.74718 0.48857 0.04500
C 	C 	0.16368 0.73927 0.76125 -0.08800
H 	H 	0.19922 0.76263 0.75785 0.04700
H 	H 	0.16141 0.74718 0.82190 0.04600
C 	C 	0.66368 0.73927 0.09458 -0.08800
H 	H 	0.69922 0.76263 0.09118 0.04500
H 	H 	0.66141 0.74718 0.15524 0.04500
C 	C 	0.66368 0.73927 0.42791 -0.09000
H 	H 	0.69922 0.76263 0.42451 0.04800
H 	H 	0.66141 0.74718 0.48857 0.04500
C 	C 	0.66368 0.73927 0.76125 -0.08900
H 	H 	0.69922 0.76263 0.75785 0.04800
H 	H 	0.66141 0.74718 0.82190 0.04600
C 	C 	0.03182 0.79331 0.12171 -0.00500
C 	C 	0.12023 0.77219 0.09794 0.03500
C 	C 	0.07033 0.76060 0.11524 -0.06400
C 	C 	0.98779 0.79250 0.15406 0.03100
C 	C 	0.99690 0.78566 0.18852 -0.05600
H 	H 	0.05990 0.72857 0.12699 0.05500
H 	H 	0.03019 0.76717 0.18849 0.04300
C 	C 	0.03182 0.79331 0.45504 -0.00300
C 	C 	0.12023 0.77219 0.43127 0.03800
C 	C 	0.07033 0.76060 0.44857 -0.06400
C 	C 	0.98779 0.79250 0.48740 0.03100
C 	C 	0.99690 0.78566 0.52185 -0.05700
H 	H 	0.05990 0.72857 0.46033 0.05500
H 	H 	0.03019 0.76717 0.52182 0.04300
C 	C 	0.03182 0.79331 0.78838 -0.00300
C 	C 	0.12023 0.77219 0.76461 0.03800
C 	C 	0.07033 0.76060 0.78190 -0.06400
C 	C 	0.98779 0.79250 0.82073 0.03100
C 	C 	0.99690 0.78566 0.85518 -0.05700
H 	H 	0.05990 0.72857 0.79366 0.05500
H 	H 	0.03019 0.76717 0.85516 0.04400
C 	C 	0.53182 0.79331 0.12171 0.01000
C 	C 	0.62023 0.77219 0.09794 0.03900
C 	C 	0.57033 0.76060 0.11524 -0.06900
C 	C 	0.48779 0.79250 0.15406 0.02000
C 	C 	0.49690 0.78566 0.18852 -0.07200
H 	H 	0.55990 0.72857 0.12699 0.05800
H 	H 	0.53019 0.76717 0.18849 0.05300
C 	C 	0.53182 0.79331 0.45504 0.01100
C 	C 	0.62023 0.77219 0.43127 0.04100
C 	C 	0.57033 0.76060 0.44857 -0.06900
C 	C 	0.48779 0.79250 0.48740 0.02100
C 	C 	0.49690 0.78566 0.52185 -0.07200
H 	H 	0.55990 0.72857 0.46033 0.05800
H 	H 	0.53019 0.76717 0.52182 0.05300
C 	C 	0.53182 0.79331 0.78838 0.01100
C 	C 	0.62023 0.77219 0.76461 0.04100
C 	C 	0.57033 0.76060 0.78190 -0.06900
C 	C 	0.48779 0.79250 0.82073 0.02100
C 	C 	0.49690 0.78566 0.85518 -0.07200
H 	H 	0.55990 0.72857 0.79366 0.05800
H 	H 	0.53019 0.76717 0.85516 0.05400
O 	O 	0.03962 0.00636 0.24970 -0.48000
O 	O 	0.03962 0.00636 0.58304 -0.48000
O 	O 	0.03962 0.00636 0.91637 -0.47900
O 	O 	0.53962 0.00636 0.24970 -0.47600
O 	O 	0.53962 0.00636 0.58304 -0.47600
O 	O 	0.53962 0.00636 0.91637 -0.47500
H 	H 	0.01969 0.79666 0.25690 0.04600
H 	H 	0.01969 0.79666 0.59024 0.04600
H 	H 	0.01969 0.79666 0.92357 0.04800
H 	H 	0.51969 0.79666 0.25690 0.05600
H 	H 	0.51969 0.79666 0.59024 0.05600
H 	H 	0.51969 0.79666 0.92357 0.05800
C 	C 	0.12955 0.81520 0.08244 -0.03400
C 	C 	0.44291 0.81441 0.15520 -0.05100
C 	C 	0.97165 0.81450 0.22320 0.04100
H 	H 	0.43327 0.81764 0.12909 0.03800
C 	C 	0.12955 0.81520 0.41578 -0.03300
C 	C 	0.44291 0.81441 0.48853 -0.05100
C 	C 	0.97165 0.81450 0.55653 0.04100
H 	H 	0.43327 0.81764 0.46242 0.04000
C 	C 	0.12955 0.81520 0.74911 -0.03300
C 	C 	0.44291 0.81441 0.82187 -0.05100
C 	C 	0.97165 0.81450 0.88987 0.04100
H 	H 	0.43327 0.81764 0.79575 0.04000
C 	C 	0.62955 0.81520 0.08244 -0.03600
C 	C 	0.94291 0.81441 0.15520 -0.05300
C 	C 	0.47165 0.81450 0.22320 0.04700
H 	H 	0.93327 0.81764 0.12909 0.04200
C 	C 	0.62955 0.81520 0.41578 -0.03500
C 	C 	0.94291 0.81441 0.48853 -0.05200
C 	C 	0.47165 0.81450 0.55653 0.04700
H 	H 	0.93327 0.81764 0.46242 0.04300
C 	C 	0.62955 0.81520 0.74911 -0.03500
C 	C 	0.94291 0.81441 0.82187 -0.05200
C 	C 	0.47165 0.81450 0.88987 0.04700
H 	H 	0.93327 0.81764 0.79575 0.04300
C 	C 	0.31129 0.00659 0.09884 -0.08300
C 	C 	0.31129 0.00659 0.43218 -0.08200
C 	C 	0.31129 0.00659 0.76551 -0.08200
C 	C 	0.81129 0.00659 0.09884 -0.08300
C 	C 	0.81129 0.00659 0.43218 -0.08200
C 	C 	0.81129 0.00659 0.76551 -0.08200
C 	C 	0.99126 0.82100 0.25594 -0.05900
H 	H 	0.16737 0.82488 0.06848 0.04500
C 	C 	0.99126 0.82100 0.58927 -0.06000
H 	H 	0.16737 0.82488 0.40181 0.04800
C 	C 	0.99126 0.82100 0.92261 -0.05800
H 	H 	0.16737 0.82488 0.73514 0.04800
C 	C 	0.49126 0.82100 0.25594 -0.07300
H 	H 	0.66737 0.82488 0.06848 0.04600
C 	C 	0.49126 0.82100 0.58927 -0.07400
H 	H 	0.66737 0.82488 0.40181 0.04900
C 	C 	0.49126 0.82100 0.92261 -0.07200
H 	H 	0.66737 0.82488 0.73514 0.04900
C 	C 	0.04151 0.83486 0.10515 -0.01600
C 	C 	0.04151 0.83486 0.43848 -0.01500
C 	C 	0.04151 0.83486 0.77182 -0.01500
C 	C 	0.54151 0.83486 0.10515 -0.02000
C 	C 	0.54151 0.83486 0.43848 -0.01900
C 	C 	0.54151 0.83486 0.77182 -0.01900
C 	C 	0.41492 0.83993 0.19014 -0.03200
C 	C 	0.41492 0.83993 0.52347 -0.03200
C 	C 	0.41492 0.83993 0.85681 -0.03200
C 	C 	0.91492 0.83993 0.19014 -0.03100
C 	C 	0.91492 0.83993 0.52347 -0.03100
C 	C 	0.91492 0.83993 0.85681 -0.03100
Mg	Mg	0.03429 0.98090 0.07747 1.47300
O 	O 	0.47802 0.94963 0.05214 -0.47400
C 	C 	0.44449 0.97852 0.04944 0.34300
C 	C 	0.27959 0.97553 0.19270 0.03000
C 	C 	0.30476 0.97693 0.12565 0.05800
C 	C 	0.27275 0.99241 0.16108 -0.06400
H 	H 	0.33843 0.98829 0.24595 0.04100
Mg	Mg	0.03429 0.98090 0.41080 1.47300
O 	O 	0.47802 0.94963 0.38548 -0.47000
C 	C 	0.44449 0.97852 0.38277 0.34500
C 	C 	0.27959 0.97553 0.52603 0.03000
C 	C 	0.30476 0.97693 0.45898 0.05800
C 	C 	0.27275 0.99241 0.49442 -0.06400
H 	H 	0.33843 0.98829 0.57928 0.04100
Mg	Mg	0.03429 0.98090 0.74413 1.47300
O 	O 	0.47802 0.94963 0.71881 -0.47000
C 	C 	0.44449 0.97852 0.71610 0.34500
C 	C 	0.27959 0.97553 0.85937 0.03000
C 	C 	0.30476 0.97693 0.79231 0.05800
C 	C 	0.27275 0.99241 0.82775 -0.06400
H 	H 	0.33843 0.98829 0.91261 0.04200
Mg	Mg	0.53429 0.98090 0.07747 1.47400
O 	O 	0.97802 0.94963 0.05214 -0.46600
C 	C 	0.94449 0.97852 0.04944 0.34200
C 	C 	0.77959 0.97553 0.19270 0.03100
C 	C 	0.80476 0.97693 0.12565 0.05800
C 	C 	0.77275 0.99241 0.16108 -0.06300
H 	H 	0.83843 0.98829 0.24595 0.04200
Mg	Mg	0.53429 0.98090 0.41080 1.47400
O 	O 	0.97802 0.94963 0.38548 -0.46300
C 	C 	0.94449 0.97852 0.38277 0.34400
C 	C 	0.77959 0.97553 0.52603 0.03100
C 	C 	0.80476 0.97693 0.45898 0.05800
C 	C 	0.77275 0.99241 0.49442 -0.06300
H 	H 	0.83843 0.98829 0.57928 0.04200
Mg	Mg	0.53429 0.98090 0.74413 1.47400
O 	O 	0.97802 0.94963 0.71881 -0.46300
C 	C 	0.94449 0.97852 0.71610 0.34400
C 	C 	0.77959 0.97553 0.85937 0.03000
C 	C 	0.80476 0.97693 0.79231 0.05800
C 	C 	0.77275 0.99241 0.82775 -0.06300
H 	H 	0.83843 0.98829 0.91261 0.04300
O 	O 	0.93815 0.98790 0.28760 -0.46600
O 	O 	0.00723 0.96711 0.30347 -0.45400
O 	O 	0.13733 0.92352 0.07931 -0.24000
O 	O 	0.05923 0.91085 0.06591 -0.45200
O 	O 	0.06893 0.99227 0.02527 -0.76700
H 	H 	0.07610 0.95934 0.00727 0.21000
C 	C 	0.96304 0.95441 0.29500 0.36000
C 	C 	0.09852 0.89361 0.07270 0.29100
C 	C 	0.09007 0.84600 0.08533 -0.06100
C 	C 	0.43306 0.84526 0.22333 -0.01400
C 	C 	0.42084 0.88716 0.25350 -0.00300
C 	C 	0.45115 0.90079 0.28051 -0.09300
C 	C 	0.48165 0.86480 0.28441 0.02800
H 	H 	0.01234 0.86151 0.11090 0.02800
H 	H 	0.38379 0.86151 0.19055 0.03000
H 	H 	0.39537 0.91385 0.25141 0.03500
H 	H 	0.00334 0.87348 0.30641 0.03100
C 	C 	0.30517 0.93087 0.18541 -0.05400
C 	C 	0.33284 0.91110 0.14857 -0.03000
C 	C 	0.33759 0.93795 0.12007 -0.01600
C 	C 	0.37963 0.93260 0.08967 -0.00500
C 	C 	0.39177 0.96978 0.06822 -0.09100
C 	C 	0.35577 0.00453 0.07138 0.01900
H 	H 	0.08470 0.99855 0.18023 0.04200
H 	H 	0.30831 0.91459 0.20864 0.04200
H 	H 	0.35571 0.87918 0.14364 0.03000
H 	H 	0.40666 0.90478 0.08702 0.03400
O 	O 	0.93815 0.98790 0.62094 -0.46600
O 	O 	0.00723 0.96711 0.63680 -0.45400
O 	O 	0.13733 0.92352 0.41264 -0.23700
O 	O 	0.05923 0.91085 0.39925 -0.44900
O 	O 	0.06893 0.99227 0.35861 -0.76500
H 	H 	0.07610 0.95934 0.34061 0.21700
C 	C 	0.96304 0.95441 0.62833 0.35900
C 	C 	0.09852 0.89361 0.40603 0.29200
C 	C 	0.09007 0.84600 0.41867 -0.05900
C 	C 	0.43306 0.84526 0.55666 -0.01400
C 	C 	0.42084 0.88716 0.58683 -0.00300
C 	C 	0.45115 0.90079 0.61385 -0.09300
C 	C 	0.48165 0.86480 0.61774 0.02800
H 	H 	0.01234 0.86151 0.44423 0.02900
H 	H 	0.38379 0.86151 0.52388 0.03000
H 	H 	0.39537 0.91385 0.58474 0.03500
H 	H 	0.00334 0.87348 0.63974 0.03100
C 	C 	0.30517 0.93087 0.51874 -0.05400
C 	C 	0.33284 0.91110 0.48190 -0.03000
C 	C 	0.33759 0.93795 0.45341 -0.01500
C 	C 	0.37963 0.93260 0.42301 -0.00500
C 	C 	0.39177 0.96978 0.40155 -0.08800
C 	C 	0.35577 0.00453 0.40471 0.02000
H 	H 	0.08470 0.99855 0.51356 0.04200
H 	H 	0.30831 0.91459 0.54198 0.04200
H 	H 	0.35571 0.87918 0.47698 0.03100
H 	H 	0.40666 0.90478 0.42035 0.03600
O 	O 	0.93815 0.98790 0.95427 -0.46200
O 	O 	0.00723 0.96711 0.97014 -0.44600
O 	O 	0.13733 0.92352 0.74598 -0.23700
O 	O 	0.05923 0.91085 0.73258 -0.44900
O 	O 	0.06893 0.99227 0.69194 -0.76600
H 	H 	0.07610 0.95934 0.67394 0.21700
C 	C 	0.96304 0.95441 0.96166 0.36100
C 	C 	0.09852 0.89361 0.73937 0.29200
C 	C 	0.09007 0.84600 0.75200 -0.05900
C 	C 	0.43306 0.84526 0.88999 -0.01300
C 	C 	0.42084 0.88716 0.92016 -0.00200
C 	C 	0.45115 0.90079 0.94718 -0.09000
C 	C 	0.48165 0.86480 0.95108 0.02900
H 	H 	0.01234 0.86151 0.77756 0.02900
H 	H 	0.38379 0.86151 0.85721 0.03100
H 	H 	0.39537 0.91385 0.91808 0.03600
H 	H 	0.00334 0.87348 0.97308 0.03700
C 	C 	0.30517 0.93087 0.85207 -0.05300
C 	C 	0.33284 0.91110 0.81524 -0.03000
C 	C 	0.33759 0.93795 0.78674 -0.01500
C 	C 	0.37963 0.93260 0.75634 -0.00500
C 	C 	0.39177 0.96978 0.73489 -0.08800
C 	C 	0.35577 0.00453 0.73805 0.02000
H 	H 	0.08470 0.99855 0.84689 0.04200
H 	H 	0.30831 0.91459 0.87531 0.04300
H 	H 	0.35571 0.87918 0.81031 0.03100
H 	H 	0.40666 0.90478 0.75368 0.03600
O 	O 	0.43815 0.98790 0.28760 -0.46500
O 	O 	0.50723 0.96711 0.30347 -0.44000
O 	O 	0.63733 0.92352 0.07931 -0.23900
O 	O 	0.55923 0.91085 0.06591 -0.44900
O 	O 	0.56893 0.99227 0.02527 -0.76400
H 	H 	0.57610 0.95934 0.00727 0.21100
C 	C 	0.46304 0.95441 0.29500 0.34400
C 	C 	0.59852 0.89361 0.07270 0.28900
C 	C 	0.59007 0.84600 0.08533 -0.05700
C 	C 	0.93306 0.84526 0.22333 -0.01200
C 	C 	0.92084 0.88716 0.25350 -0.00000
C 	C 	0.95115 0.90079 0.28051 -0.09900
C 	C 	0.98165 0.86480 0.28441 0.04200
H 	H 	0.51234 0.86151 0.11090 0.03300
H 	H 	0.88379 0.86151 0.19055 0.03100
H 	H 	0.89537 0.91385 0.25141 0.03500
H 	H 	0.50334 0.87348 0.30641 0.04200
C 	C 	0.80517 0.93087 0.18541 -0.05400
C 	C 	0.83284 0.91110 0.14857 -0.03000
C 	C 	0.83759 0.93795 0.12007 -0.01600
C 	C 	0.87963 0.93260 0.08967 -0.00600
C 	C 	0.89177 0.96978 0.06822 -0.08900
C 	C 	0.85577 0.00453 0.07138 0.01800
H 	H 	0.58470 0.99855 0.18023 0.04400
H 	H 	0.80831 0.91459 0.20864 0.04200
H 	H 	0.85571 0.87918 0.14364 0.03100
H 	H 	0.90666 0.90478 0.08702 0.03600
O 	O 	0.43815 0.98790 0.62094 -0.46500
O 	O 	0.50723 0.96711 0.63680 -0.44000
O 	O 	0.63733 0.92352 0.41264 -0.23700
O 	O 	0.55923 0.91085 0.39925 -0.44600
O 	O 	0.56893 0.99227 0.35861 -0.76300
H 	H 	0.57610 0.95934 0.34061 0.21800
C 	C 	0.46304 0.95441 0.62833 0.34400
C 	C 	0.59852 0.89361 0.40603 0.29100
C 	C 	0.59007 0.84600 0.41867 -0.05500
C 	C 	0.93306 0.84526 0.55666 -0.01200
C 	C 	0.92084 0.88716 0.58683 -0.00000
C 	C 	0.95115 0.90079 0.61385 -0.09900
C 	C 	0.98165 0.86480 0.61774 0.04100
H 	H 	0.51234 0.86151 0.44423 0.03400
H 	H 	0.88379 0.86151 0.52388 0.03100
H 	H 	0.89537 0.91385 0.58474 0.03500
H 	H 	0.50334 0.87348 0.63974 0.04200
C 	C 	0.80517 0.93087 0.51874 -0.05300
C 	C 	0.83284 0.91110 0.48190 -0.02900
C 	C 	0.83759 0.93795 0.45341 -0.01500
C 	C 	0.87963 0.93260 0.42301 -0.00500
C 	C 	0.89177 0.96978 0.40155 -0.08600
C 	C 	0.85577 0.00453 0.40471 0.01900
H 	H 	0.58470 0.99855 0.51356 0.04400
H 	H 	0.80831 0.91459 0.54198 0.04200
H 	H 	0.85571 0.87918 0.47698 0.03200
H 	H 	0.90666 0.90478 0.42035 0.03700
O 	O 	0.43815 0.98790 0.95427 -0.46100
O 	O 	0.50723 0.96711 0.97014 -0.43200
O 	O 	0.63733 0.92352 0.74598 -0.23700
O 	O 	0.55923 0.91085 0.73258 -0.44600
O 	O 	0.56893 0.99227 0.69194 -0.76300
H 	H 	0.57610 0.95934 0.67394 0.21800
C 	C 	0.46304 0.95441 0.96166 0.34600
C 	C 	0.59852 0.89361 0.73937 0.29100
C 	C 	0.59007 0.84600 0.75200 -0.05500
C 	C 	0.93306 0.84526 0.88999 -0.01100
C 	C 	0.92084 0.88716 0.92016 0.00000
C 	C 	0.95115 0.90079 0.94718 -0.09600
C 	C 	0.98165 0.86480 0.95108 0.04200
H 	H 	0.51234 0.86151 0.77756 0.03400
H 	H 	0.88379 0.86151 0.85721 0.03100
H 	H 	0.89537 0.91385 0.91808 0.03600
H 	H 	0.50334 0.87348 0.97308 0.04800
C 	C 	0.80517 0.93087 0.85207 -0.05300
C 	C 	0.83284 0.91110 0.81524 -0.02900
C 	C 	0.83759 0.93795 0.78674 -0.01500
C 	C 	0.87963 0.93260 0.75634 -0.00500
C 	C 	0.89177 0.96978 0.73489 -0.08700
C 	C 	0.85577 0.00453 0.73805 0.01900
H 	H 	0.58470 0.99855 0.84689 0.04400
H 	H 	0.80831 0.91459 0.87531 0.04300
H 	H 	0.85571 0.87918 0.81031 0.03200
H 	H 	0.90666 0.90478 0.75368 0.03700
