data_crystal

_cell_length_a 26.80040
_cell_length_b 28.42350
_cell_length_c 35.07700
_cell_angle_alpha 80.13700
_cell_angle_beta  100.99600
_cell_angle_gamma 97.05200

_symmetry_space_group_name_	'P 1'
_symmetry_space_group_name_H-M	'P 1'

loop_
_symmetry_equiv_pos_as_xyz
  x,y,z

loop_
_atom_site_label
_atom_site_type_symbol
_atom_site_fract_x
_atom_site_fract_y
_atom_site_fract_z
_atom_site_charge
Yb	Yb	0.49705 0.07585 0.35722 1.48800
Yb	Yb	0.08963 0.47168 0.06881 1.48700
Yb	Yb	0.08004 0.54229 0.10871 1.41800
Yb	Yb	0.56637 0.05156 0.32053 1.41600
C 	C 	0.46969 0.08289 0.10077 0.41800
C 	C 	0.99192 0.14934 0.29743 0.36100
C 	C 	0.17073 0.46016 0.12408 0.36100
C 	C 	0.59511 0.44178 0.32763 0.40200
O 	O 	0.54811 0.13709 0.04612 -0.45900
O 	O 	0.02755 0.42985 0.09339 -0.46500
O 	O 	0.44504 0.02044 0.33270 -0.47200
O 	O 	0.15937 0.51198 0.38066 -0.45500
O 	O 	0.51919 0.08642 0.11391 -0.48400
O 	O 	0.03351 0.12697 0.29722 -0.50800
O 	O 	0.15517 0.50336 0.12454 -0.51300
O 	O 	0.60738 0.48796 0.31683 -0.46900
O 	O 	0.06900 0.42904 0.35571 -0.46600
O 	O 	0.45881 0.12981 0.32015 -0.45600
O 	O 	0.14177 0.42865 0.10421 -0.46000
O 	O 	0.45090 0.06611 0.06843 -0.46800
C 	C 	0.09715 0.14160 0.06106 0.34200
O 	O 	0.13471 0.08525 0.34956 -0.49000
O 	O 	0.03625 0.47970 0.13908 -0.49600
O 	O 	0.49810 0.01329 0.29071 -0.50300
O 	O 	0.12082 0.10601 0.08292 -0.47500
C 	C 	0.01587 0.43998 0.12532 0.38700
O 	O 	0.04526 0.02552 0.04763 -0.89900
C 	C 	0.45501 0.00126 0.30405 0.41700
C 	C 	0.17001 0.55815 0.36882 0.33900
C 	C 	0.19642 0.28791 0.19972 -0.33500
Ge	Ge	0.13498 0.30111 0.21682 0.75600
S 	S 	0.58840 0.34363 0.16835 -0.40900
Ge	Ge	0.52328 0.36301 0.18930 0.79800
C 	C 	0.48210 0.40398 0.14765 -0.46700
S 	S 	0.47979 0.29655 0.21076 -0.42600
Ge	Ge	0.52498 0.25131 0.25921 0.77300
C 	C 	0.47693 0.19265 0.26731 -0.42600
S 	S 	0.59201 0.23453 0.23893 -0.41800
S 	S 	0.55050 0.29560 0.30673 -0.40500
Ge	Ge	0.09530 0.36234 0.28486 0.79400
C 	C 	0.12827 0.40560 0.32189 -0.47000
S 	S 	0.16064 0.34276 0.26443 -0.43100
S 	S 	0.54883 0.40495 0.23687 -0.42400
C 	C 	0.18510 0.26899 0.16035 0.01700
C 	C 	0.15109 0.22130 0.16212 -0.09700
C 	C 	0.15293 0.19408 0.12848 -0.06700
C 	C 	0.12476 0.21798 0.08882 -0.00900
C 	C 	0.12610 0.19002 0.05545 -0.21000
H 	H 	0.22162 0.32191 0.19670 0.08800
H 	H 	0.21695 0.26192 0.22286 0.08700
H 	H 	0.45744 0.38114 0.12748 0.13000
H 	H 	0.45725 0.42272 0.16089 0.12700
H 	H 	0.44148 0.20449 0.27314 0.12000
H 	H 	0.46689 0.17996 0.23834 0.11000
H 	H 	0.14213 0.38374 0.35053 0.12700
H 	H 	0.16240 0.42494 0.31066 0.13200
H 	H 	0.16666 0.29629 0.13711 0.02100
H 	H 	0.22229 0.26390 0.15272 0.01800
H 	H 	0.66383 0.19786 0.19018 0.03900
H 	H 	0.11088 0.22785 0.16138 0.03900
H 	H 	0.19317 0.19060 0.12641 0.03600
H 	H 	0.13437 0.15744 0.13614 0.03300
H 	H 	0.14325 0.25472 0.08130 0.02700
H 	H 	0.08440 0.22116 0.09083 0.03500
H 	H 	0.10895 0.21062 0.02711 0.07900
H 	H 	0.16628 0.18607 0.05352 0.08000
C 	C 	0.28166 0.16381 0.21325 -0.34200
Ge	Ge	0.30614 0.10685 0.20172 0.76200
S 	S 	0.34855 0.06779 0.25471 -0.41700
Ge	Ge	0.37921 0.50812 0.23812 0.81600
C 	C 	0.41469 0.46953 0.28353 -0.48900
S 	S 	0.31747 0.46090 0.21187 -0.44400
Ge	Ge	0.27453 0.49917 0.15923 0.79500
C 	C 	0.22291 0.44707 0.14395 -0.44500
S 	S 	0.24334 0.55957 0.17485 -0.42600
S 	S 	0.32832 0.52639 0.11826 -0.41800
Ge	Ge	0.38951 0.07539 0.14567 0.80900
C 	C 	0.43707 0.11273 0.11438 -0.48800
S 	S 	0.35640 0.13431 0.16029 -0.44200
S 	S 	0.43211 0.53571 0.19777 -0.43200
C 	C 	0.26570 0.15536 0.25345 0.02200
C 	C 	0.22112 0.11624 0.25576 -0.09800
C 	C 	0.20315 0.10906 0.29506 -0.05700
C 	C 	0.23879 0.08004 0.32826 -0.01300
C 	C 	0.22409 0.07804 0.36874 -0.21100
H 	H 	0.31305 0.19318 0.21274 0.09000
H 	H 	0.24946 0.17499 0.18987 0.08800
H 	H 	0.38732 0.45279 0.30315 0.13800
H 	H 	0.43191 0.44089 0.27396 0.13600
H 	H 	0.23888 0.42801 0.12457 0.12200
H 	H 	0.21820 0.42127 0.17089 0.11800
H 	H 	0.41517 0.13445 0.08869 0.13500
H 	H 	0.46146 0.13804 0.13257 0.13400
H 	H 	0.29918 0.14593 0.27631 0.01900
H 	H 	0.25394 0.18951 0.25871 0.01400
H 	H 	0.18864 0.62670 0.23216 0.03500
H 	H 	0.23139 0.08125 0.25121 0.03600
H 	H 	0.19837 0.14427 0.30309 0.04100
H 	H 	0.16511 0.08853 0.29015 0.01100
H 	H 	0.27880 0.09633 0.32993 0.03400
H 	H 	0.23778 0.04289 0.32184 0.03700
H 	H 	0.22955 0.11459 0.37706 0.08000
H 	H 	0.24934 0.05511 0.39091 0.08600
Yb	Yb	0.49705 0.07585 0.69055 1.48700
Yb	Yb	0.08963 0.47168 0.40215 1.48700
Yb	Yb	0.08004 0.54229 0.44204 1.41800
Yb	Yb	0.56637 0.05156 0.65386 1.41600
C 	C 	0.46969 0.08289 0.43410 0.41800
C 	C 	0.99192 0.14934 0.63076 0.36100
C 	C 	0.17073 0.46016 0.45741 0.36100
C 	C 	0.59511 0.44178 0.66097 0.40200
O 	O 	0.54811 0.13709 0.37946 -0.45800
O 	O 	0.02755 0.42985 0.42672 -0.46500
O 	O 	0.44504 0.02044 0.66603 -0.47200
O 	O 	0.15937 0.51198 0.71399 -0.45500
O 	O 	0.51919 0.08642 0.44724 -0.48400
O 	O 	0.03351 0.12697 0.63055 -0.50900
O 	O 	0.15517 0.50336 0.45787 -0.51300
O 	O 	0.60738 0.48796 0.65017 -0.46900
O 	O 	0.06900 0.42904 0.68904 -0.46600
O 	O 	0.45881 0.12981 0.65348 -0.45600
O 	O 	0.14177 0.42865 0.43754 -0.46000
O 	O 	0.45090 0.06611 0.40176 -0.46800
C 	C 	0.09715 0.14160 0.39439 0.34200
O 	O 	0.13471 0.08525 0.68289 -0.49000
O 	O 	0.03625 0.47970 0.47241 -0.49600
O 	O 	0.49810 0.01329 0.62405 -0.50300
O 	O 	0.12082 0.10601 0.41625 -0.47500
C 	C 	0.01587 0.43998 0.45865 0.38600
O 	O 	0.04526 0.02552 0.38096 -0.89900
C 	C 	0.45501 0.00126 0.63738 0.41700
C 	C 	0.17001 0.55815 0.70215 0.33900
C 	C 	0.19642 0.28791 0.53305 -0.33500
Ge	Ge	0.13498 0.30111 0.55015 0.75600
S 	S 	0.58840 0.34363 0.50168 -0.40900
Ge	Ge	0.52328 0.36301 0.52263 0.79800
C 	C 	0.48210 0.40398 0.48099 -0.46700
S 	S 	0.47979 0.29655 0.54410 -0.42600
Ge	Ge	0.52498 0.25131 0.59254 0.77300
C 	C 	0.47693 0.19265 0.60064 -0.42600
S 	S 	0.59201 0.23453 0.57227 -0.41800
S 	S 	0.55050 0.29560 0.64006 -0.40500
Ge	Ge	0.09530 0.36234 0.61819 0.79400
C 	C 	0.12827 0.40560 0.65522 -0.47000
S 	S 	0.16064 0.34276 0.59776 -0.43100
S 	S 	0.54883 0.40495 0.57020 -0.42400
C 	C 	0.18510 0.26899 0.49369 0.01700
C 	C 	0.15109 0.22130 0.49545 -0.09700
C 	C 	0.15293 0.19408 0.46181 -0.06700
C 	C 	0.12476 0.21798 0.42215 -0.00900
C 	C 	0.12610 0.19002 0.38879 -0.21000
H 	H 	0.22162 0.32191 0.53004 0.08800
H 	H 	0.21695 0.26192 0.55619 0.08700
H 	H 	0.45744 0.38114 0.46081 0.13000
H 	H 	0.45725 0.42272 0.49422 0.12700
H 	H 	0.44148 0.20449 0.60648 0.12000
H 	H 	0.46689 0.17996 0.57167 0.11000
H 	H 	0.14213 0.38374 0.68386 0.12700
H 	H 	0.16240 0.42494 0.64399 0.13200
H 	H 	0.16666 0.29629 0.47045 0.02100
H 	H 	0.22229 0.26390 0.48606 0.01800
H 	H 	0.66383 0.19786 0.52351 0.03900
H 	H 	0.11088 0.22785 0.49472 0.03900
H 	H 	0.19317 0.19060 0.45974 0.03600
H 	H 	0.13437 0.15744 0.46947 0.03200
H 	H 	0.14325 0.25472 0.41463 0.02700
H 	H 	0.08440 0.22116 0.42416 0.03500
H 	H 	0.10895 0.21062 0.36045 0.07900
H 	H 	0.16628 0.18607 0.38685 0.08000
C 	C 	0.28166 0.16381 0.54658 -0.34200
Ge	Ge	0.30614 0.10685 0.53505 0.76200
S 	S 	0.34855 0.06779 0.58805 -0.41600
Ge	Ge	0.37921 0.50812 0.57145 0.81600
C 	C 	0.41469 0.46953 0.61686 -0.48900
S 	S 	0.31747 0.46090 0.54520 -0.44400
Ge	Ge	0.27453 0.49917 0.49256 0.79500
C 	C 	0.22291 0.44707 0.47728 -0.44500
S 	S 	0.24334 0.55957 0.50818 -0.42600
S 	S 	0.32832 0.52639 0.45159 -0.41700
Ge	Ge	0.38951 0.07539 0.47901 0.80900
C 	C 	0.43707 0.11273 0.44772 -0.48800
S 	S 	0.35640 0.13431 0.49363 -0.44200
S 	S 	0.43211 0.53571 0.53110 -0.43200
C 	C 	0.26570 0.15536 0.58678 0.02200
C 	C 	0.22112 0.11624 0.58909 -0.09800
C 	C 	0.20315 0.10906 0.62840 -0.05700
C 	C 	0.23879 0.08004 0.66160 -0.01300
C 	C 	0.22409 0.07804 0.70207 -0.21100
H 	H 	0.31305 0.19318 0.54607 0.09000
H 	H 	0.24946 0.17499 0.52321 0.08800
H 	H 	0.38732 0.45279 0.63648 0.13800
H 	H 	0.43191 0.44089 0.60729 0.13600
H 	H 	0.23888 0.42801 0.45791 0.12300
H 	H 	0.21820 0.42127 0.50423 0.11800
H 	H 	0.41517 0.13445 0.42202 0.13500
H 	H 	0.46146 0.13804 0.46590 0.13400
H 	H 	0.29918 0.14593 0.60965 0.01900
H 	H 	0.25394 0.18951 0.59204 0.01300
H 	H 	0.18864 0.62670 0.56550 0.03500
H 	H 	0.23139 0.08125 0.58454 0.03600
H 	H 	0.19837 0.14427 0.63642 0.04100
H 	H 	0.16511 0.08853 0.62348 0.01100
H 	H 	0.27880 0.09633 0.66327 0.03400
H 	H 	0.23778 0.04289 0.65517 0.03700
H 	H 	0.22955 0.11459 0.71039 0.08000
H 	H 	0.24934 0.05511 0.72424 0.08600
Yb	Yb	0.49705 0.07585 0.02389 1.48700
Yb	Yb	0.08963 0.47168 0.73548 1.48800
Yb	Yb	0.08004 0.54229 0.77538 1.41800
Yb	Yb	0.56637 0.05156 0.98720 1.41600
C 	C 	0.46969 0.08289 0.76743 0.41800
C 	C 	0.99192 0.14934 0.96409 0.36200
C 	C 	0.17073 0.46016 0.79075 0.36100
C 	C 	0.59511 0.44178 0.99430 0.40300
O 	O 	0.54811 0.13709 0.71279 -0.45800
O 	O 	0.02755 0.42985 0.76005 -0.46500
O 	O 	0.44504 0.02044 0.99936 -0.47100
O 	O 	0.15937 0.51198 0.04732 -0.45500
O 	O 	0.51919 0.08642 0.78057 -0.48400
O 	O 	0.03351 0.12697 0.96389 -0.50900
O 	O 	0.15517 0.50336 0.79121 -0.51300
O 	O 	0.60738 0.48796 0.98350 -0.46900
O 	O 	0.06900 0.42904 0.02237 -0.46600
O 	O 	0.45881 0.12981 0.98681 -0.45600
O 	O 	0.14177 0.42865 0.77087 -0.46000
O 	O 	0.45090 0.06611 0.73509 -0.46800
C 	C 	0.09715 0.14160 0.72772 0.34200
O 	O 	0.13471 0.08525 0.01623 -0.49000
O 	O 	0.03625 0.47970 0.80574 -0.49600
O 	O 	0.49810 0.01329 0.95738 -0.50300
O 	O 	0.12082 0.10601 0.74959 -0.47500
C 	C 	0.01587 0.43998 0.79198 0.38500
O 	O 	0.04526 0.02552 0.71429 -0.90000
C 	C 	0.45501 0.00126 0.97072 0.41700
C 	C 	0.17001 0.55815 0.03549 0.33900
C 	C 	0.19642 0.28791 0.86639 -0.33500
Ge	Ge	0.13498 0.30111 0.88349 0.75500
S 	S 	0.58840 0.34363 0.83501 -0.40800
Ge	Ge	0.52328 0.36301 0.85597 0.79800
C 	C 	0.48210 0.40398 0.81432 -0.46700
S 	S 	0.47979 0.29655 0.87743 -0.42600
Ge	Ge	0.52498 0.25131 0.92588 0.77300
C 	C 	0.47693 0.19265 0.93397 -0.42700
S 	S 	0.59201 0.23453 0.90560 -0.41800
S 	S 	0.55050 0.29560 0.97339 -0.40400
Ge	Ge	0.09530 0.36234 0.95152 0.79400
C 	C 	0.12827 0.40560 0.98855 -0.47000
S 	S 	0.16064 0.34276 0.93110 -0.43100
S 	S 	0.54883 0.40495 0.90354 -0.42400
C 	C 	0.18510 0.26899 0.82702 0.01700
C 	C 	0.15109 0.22130 0.82878 -0.09700
C 	C 	0.15293 0.19408 0.79514 -0.06700
C 	C 	0.12476 0.21798 0.75549 -0.00900
C 	C 	0.12610 0.19002 0.72212 -0.21000
H 	H 	0.22162 0.32191 0.86337 0.08800
H 	H 	0.21695 0.26192 0.88952 0.08700
H 	H 	0.45744 0.38114 0.79415 0.13000
H 	H 	0.45725 0.42272 0.82756 0.12700
H 	H 	0.44148 0.20449 0.93981 0.12000
H 	H 	0.46689 0.17996 0.90501 0.11000
H 	H 	0.14213 0.38374 0.01720 0.12700
H 	H 	0.16240 0.42494 0.97732 0.13200
H 	H 	0.16666 0.29629 0.80378 0.02100
H 	H 	0.22229 0.26390 0.81939 0.01800
H 	H 	0.66383 0.19786 0.85685 0.03900
H 	H 	0.11088 0.22785 0.82805 0.03900
H 	H 	0.19317 0.19060 0.79308 0.03600
H 	H 	0.13437 0.15744 0.80281 0.03200
H 	H 	0.14325 0.25472 0.74797 0.02700
H 	H 	0.08440 0.22116 0.75749 0.03500
H 	H 	0.10895 0.21062 0.69378 0.07900
H 	H 	0.16628 0.18607 0.72019 0.08000
C 	C 	0.28166 0.16381 0.87992 -0.34200
Ge	Ge	0.30614 0.10685 0.86839 0.76200
S 	S 	0.34855 0.06779 0.92138 -0.41600
Ge	Ge	0.37921 0.50812 0.90479 0.81600
C 	C 	0.41469 0.46953 0.95019 -0.48900
S 	S 	0.31747 0.46090 0.87853 -0.44400
Ge	Ge	0.27453 0.49917 0.82590 0.79500
C 	C 	0.22291 0.44707 0.81062 -0.44500
S 	S 	0.24334 0.55957 0.84151 -0.42600
S 	S 	0.32832 0.52639 0.78493 -0.41700
Ge	Ge	0.38951 0.07539 0.81234 0.80900
C 	C 	0.43707 0.11273 0.78105 -0.48800
S 	S 	0.35640 0.13431 0.82696 -0.44200
S 	S 	0.43211 0.53571 0.86444 -0.43200
C 	C 	0.26570 0.15536 0.92011 0.02200
C 	C 	0.22112 0.11624 0.92242 -0.09800
C 	C 	0.20315 0.10906 0.96173 -0.05700
C 	C 	0.23879 0.08004 0.99493 -0.01300
C 	C 	0.22409 0.07804 0.03540 -0.21100
H 	H 	0.31305 0.19318 0.87940 0.09000
H 	H 	0.24946 0.17499 0.85654 0.08800
H 	H 	0.38732 0.45279 0.96982 0.13800
H 	H 	0.43191 0.44089 0.94063 0.13600
H 	H 	0.23888 0.42801 0.79124 0.12200
H 	H 	0.21820 0.42127 0.83756 0.11800
H 	H 	0.41517 0.13445 0.75535 0.13500
H 	H 	0.46146 0.13804 0.79924 0.13400
H 	H 	0.29918 0.14593 0.94298 0.01900
H 	H 	0.25394 0.18951 0.92538 0.01400
H 	H 	0.18864 0.62670 0.89883 0.03500
H 	H 	0.23139 0.08125 0.91788 0.03600
H 	H 	0.19837 0.14427 0.96975 0.04100
H 	H 	0.16511 0.08853 0.95681 0.01100
H 	H 	0.27880 0.09633 0.99660 0.03400
H 	H 	0.23778 0.04289 0.98850 0.03700
H 	H 	0.22955 0.11459 0.04372 0.08000
H 	H 	0.24934 0.05511 0.05757 0.08600
Yb	Yb	0.49705 0.57585 0.35722 1.48700
Yb	Yb	0.08963 0.97168 0.06881 1.48200
Yb	Yb	0.08004 0.04229 0.10871 1.42100
Yb	Yb	0.56637 0.55156 0.32053 1.41400
C 	C 	0.46969 0.58289 0.10077 0.41700
C 	C 	0.99192 0.64934 0.29743 0.36200
C 	C 	0.17073 0.96016 0.12408 0.35000
C 	C 	0.59511 0.94178 0.32763 0.40200
O 	O 	0.54810 0.63709 0.04612 -0.45900
O 	O 	0.02755 0.92985 0.09339 -0.46600
O 	O 	0.44504 0.52044 0.33270 -0.47100
O 	O 	0.15937 0.01198 0.38066 -0.45000
O 	O 	0.51919 0.58642 0.11391 -0.48500
O 	O 	0.03351 0.62697 0.29722 -0.50900
O 	O 	0.15517 0.00336 0.12454 -0.50400
O 	O 	0.60738 0.98796 0.31683 -0.47400
O 	O 	0.06900 0.92904 0.35570 -0.46800
O 	O 	0.45881 0.62981 0.32015 -0.45600
O 	O 	0.14177 0.92865 0.10421 -0.45800
O 	O 	0.45090 0.56611 0.06843 -0.47000
C 	C 	0.09715 0.64159 0.06106 0.34200
O 	O 	0.13471 0.58525 0.34956 -0.49000
O 	O 	0.03625 0.97970 0.13908 -0.50100
O 	O 	0.49810 0.51329 0.29071 -0.50300
O 	O 	0.12082 0.60601 0.08292 -0.47500
C 	C 	0.01587 0.93998 0.12532 0.38600
O 	O 	0.04526 0.52552 0.04763 -0.90400
C 	C 	0.45501 0.50126 0.30405 0.40600
C 	C 	0.17001 0.05815 0.36882 0.33900
C 	C 	0.19642 0.78791 0.19972 -0.33500
Ge	Ge	0.13498 0.80111 0.21682 0.75600
S 	S 	0.58840 0.84363 0.16835 -0.40900
Ge	Ge	0.52328 0.86301 0.18930 0.79800
C 	C 	0.48210 0.90398 0.14765 -0.46700
S 	S 	0.47979 0.79655 0.21076 -0.42600
Ge	Ge	0.52498 0.75131 0.25921 0.77300
C 	C 	0.47693 0.69265 0.26731 -0.42600
S 	S 	0.59201 0.73453 0.23893 -0.41800
S 	S 	0.55050 0.79560 0.30673 -0.40500
Ge	Ge	0.09530 0.86234 0.28486 0.79300
C 	C 	0.12827 0.90560 0.32189 -0.47100
S 	S 	0.16064 0.84276 0.26443 -0.43200
S 	S 	0.54883 0.90495 0.23687 -0.42600
C 	C 	0.18510 0.76899 0.16035 0.01700
C 	C 	0.15109 0.72130 0.16212 -0.09700
C 	C 	0.15293 0.69408 0.12848 -0.06700
C 	C 	0.12476 0.71798 0.08882 -0.00900
C 	C 	0.12610 0.69002 0.05545 -0.21000
H 	H 	0.22162 0.82191 0.19670 0.08700
H 	H 	0.21695 0.76192 0.22286 0.08700
H 	H 	0.45744 0.88114 0.12748 0.12900
H 	H 	0.45725 0.92272 0.16089 0.12500
H 	H 	0.44148 0.70449 0.27314 0.12000
H 	H 	0.46689 0.67996 0.23834 0.11000
H 	H 	0.14213 0.88374 0.35053 0.12700
H 	H 	0.16240 0.92494 0.31066 0.13100
H 	H 	0.16666 0.79629 0.13711 0.02100
H 	H 	0.22229 0.76390 0.15272 0.01700
H 	H 	0.66383 0.69786 0.19018 0.03900
H 	H 	0.11088 0.72785 0.16138 0.03900
H 	H 	0.19317 0.69060 0.12641 0.03600
H 	H 	0.13437 0.65744 0.13614 0.03200
H 	H 	0.14325 0.75472 0.08130 0.02700
H 	H 	0.08440 0.72116 0.09083 0.03500
H 	H 	0.10895 0.71062 0.02711 0.07900
H 	H 	0.16628 0.68607 0.05352 0.08000
C 	C 	0.28166 0.66381 0.21325 -0.34200
Ge	Ge	0.30614 0.60685 0.20172 0.76200
S 	S 	0.34855 0.56779 0.25471 -0.41500
Ge	Ge	0.37921 0.00812 0.23812 0.83600
C 	C 	0.41469 0.96953 0.28353 -0.50700
S 	S 	0.31747 0.96090 0.21187 -0.45100
Ge	Ge	0.27453 0.99917 0.15923 0.77400
C 	C 	0.22291 0.94707 0.14395 -0.43900
S 	S 	0.24334 0.05957 0.17485 -0.41700
S 	S 	0.32832 0.02639 0.11826 -0.40700
Ge	Ge	0.38951 0.57539 0.14567 0.80900
C 	C 	0.43707 0.61273 0.11438 -0.48800
S 	S 	0.35640 0.63431 0.16029 -0.44200
S 	S 	0.43211 0.03571 0.19777 -0.43100
C 	C 	0.26570 0.65536 0.25345 0.02100
C 	C 	0.22112 0.61624 0.25576 -0.09800
C 	C 	0.20315 0.60906 0.29506 -0.05700
C 	C 	0.23879 0.58004 0.32826 -0.01300
C 	C 	0.22409 0.57804 0.36874 -0.21200
H 	H 	0.31305 0.69318 0.21274 0.09000
H 	H 	0.24946 0.67499 0.18987 0.08800
H 	H 	0.38732 0.95279 0.30315 0.13900
H 	H 	0.43191 0.94089 0.27396 0.13700
H 	H 	0.23888 0.92801 0.12457 0.12000
H 	H 	0.21820 0.92127 0.17089 0.11700
H 	H 	0.41517 0.63445 0.08869 0.13500
H 	H 	0.46146 0.63804 0.13257 0.13400
H 	H 	0.29918 0.64593 0.27631 0.01900
H 	H 	0.25394 0.68951 0.25871 0.01300
H 	H 	0.18864 0.12670 0.23216 0.03500
H 	H 	0.23139 0.58125 0.25121 0.03500
H 	H 	0.19837 0.64427 0.30309 0.04100
H 	H 	0.16511 0.58853 0.29015 0.01100
H 	H 	0.27880 0.59633 0.32993 0.03400
H 	H 	0.23778 0.54289 0.32184 0.03500
H 	H 	0.22955 0.61459 0.37706 0.08000
H 	H 	0.24934 0.55511 0.39091 0.08500
Yb	Yb	0.49705 0.57585 0.69055 1.48700
Yb	Yb	0.08963 0.97168 0.40215 1.48300
Yb	Yb	0.08004 0.04229 0.44204 1.42100
Yb	Yb	0.56637 0.55156 0.65386 1.41400
C 	C 	0.46969 0.58289 0.43410 0.41700
C 	C 	0.99192 0.64934 0.63076 0.36200
C 	C 	0.17073 0.96016 0.45741 0.35000
C 	C 	0.59511 0.94178 0.66097 0.40200
O 	O 	0.54810 0.63709 0.37946 -0.45800
O 	O 	0.02755 0.92985 0.42672 -0.46600
O 	O 	0.44504 0.52044 0.66603 -0.47100
O 	O 	0.15937 0.01198 0.71399 -0.45000
O 	O 	0.51919 0.58642 0.44724 -0.48500
O 	O 	0.03351 0.62697 0.63055 -0.51000
O 	O 	0.15517 0.00336 0.45787 -0.50400
O 	O 	0.60738 0.98796 0.65016 -0.47400
O 	O 	0.06900 0.92904 0.68904 -0.46800
O 	O 	0.45881 0.62981 0.65348 -0.45600
O 	O 	0.14177 0.92865 0.43754 -0.45800
O 	O 	0.45090 0.56611 0.40176 -0.46900
C 	C 	0.09715 0.64159 0.39439 0.34200
O 	O 	0.13471 0.58525 0.68289 -0.49000
O 	O 	0.03625 0.97970 0.47241 -0.50100
O 	O 	0.49810 0.51329 0.62405 -0.50300
O 	O 	0.12082 0.60601 0.41625 -0.47500
C 	C 	0.01587 0.93998 0.45865 0.38500
O 	O 	0.04526 0.52552 0.38096 -0.90300
C 	C 	0.45501 0.50126 0.63738 0.40600
C 	C 	0.17001 0.05815 0.70215 0.33900
C 	C 	0.19642 0.78791 0.53305 -0.33500
Ge	Ge	0.13498 0.80111 0.55015 0.75600
S 	S 	0.58840 0.84363 0.50168 -0.40900
Ge	Ge	0.52328 0.86301 0.52263 0.79800
C 	C 	0.48210 0.90398 0.48099 -0.46700
S 	S 	0.47979 0.79655 0.54410 -0.42600
Ge	Ge	0.52498 0.75131 0.59254 0.77300
C 	C 	0.47693 0.69265 0.60064 -0.42600
S 	S 	0.59201 0.73453 0.57227 -0.41800
S 	S 	0.55050 0.79560 0.64006 -0.40500
Ge	Ge	0.09530 0.86234 0.61819 0.79300
C 	C 	0.12827 0.90560 0.65522 -0.47100
S 	S 	0.16064 0.84276 0.59776 -0.43200
S 	S 	0.54883 0.90495 0.57020 -0.42600
C 	C 	0.18510 0.76899 0.49369 0.01700
C 	C 	0.15109 0.72130 0.49545 -0.09700
C 	C 	0.15293 0.69408 0.46181 -0.06700
C 	C 	0.12476 0.71798 0.42215 -0.00900
C 	C 	0.12610 0.69002 0.38879 -0.21000
H 	H 	0.22162 0.82191 0.53004 0.08700
H 	H 	0.21695 0.76192 0.55619 0.08700
H 	H 	0.45744 0.88114 0.46081 0.12900
H 	H 	0.45725 0.92272 0.49422 0.12600
H 	H 	0.44148 0.70449 0.60648 0.12000
H 	H 	0.46689 0.67996 0.57167 0.11000
H 	H 	0.14213 0.88374 0.68386 0.12700
H 	H 	0.16240 0.92494 0.64399 0.13100
H 	H 	0.16666 0.79629 0.47045 0.02100
H 	H 	0.22229 0.76390 0.48606 0.01700
H 	H 	0.66383 0.69786 0.52351 0.03900
H 	H 	0.11088 0.72785 0.49472 0.03900
H 	H 	0.19317 0.69060 0.45974 0.03600
H 	H 	0.13437 0.65744 0.46947 0.03200
H 	H 	0.14325 0.75472 0.41463 0.02700
H 	H 	0.08440 0.72116 0.42416 0.03500
H 	H 	0.10895 0.71062 0.36045 0.07900
H 	H 	0.16628 0.68607 0.38685 0.08000
C 	C 	0.28166 0.66381 0.54658 -0.34200
Ge	Ge	0.30614 0.60685 0.53505 0.76200
S 	S 	0.34855 0.56779 0.58805 -0.41500
Ge	Ge	0.37921 0.00812 0.57145 0.83500
C 	C 	0.41469 0.96953 0.61686 -0.50700
S 	S 	0.31747 0.96090 0.54520 -0.45100
Ge	Ge	0.27453 0.99917 0.49256 0.77500
C 	C 	0.22291 0.94707 0.47728 -0.43900
S 	S 	0.24334 0.05957 0.50818 -0.41700
S 	S 	0.32832 0.02639 0.45159 -0.40700
Ge	Ge	0.38951 0.57539 0.47901 0.80900
C 	C 	0.43707 0.61273 0.44772 -0.48800
S 	S 	0.35640 0.63431 0.49363 -0.44200
S 	S 	0.43211 0.03571 0.53110 -0.43100
C 	C 	0.26570 0.65536 0.58678 0.02200
C 	C 	0.22112 0.61624 0.58909 -0.09800
C 	C 	0.20315 0.60906 0.62840 -0.05700
C 	C 	0.23879 0.58004 0.66160 -0.01300
C 	C 	0.22409 0.57804 0.70207 -0.21200
H 	H 	0.31305 0.69318 0.54607 0.09000
H 	H 	0.24946 0.67499 0.52321 0.08800
H 	H 	0.38732 0.95279 0.63648 0.13900
H 	H 	0.43191 0.94089 0.60729 0.13700
H 	H 	0.23888 0.92801 0.45791 0.12000
H 	H 	0.21820 0.92127 0.50423 0.11700
H 	H 	0.41517 0.63445 0.42202 0.13500
H 	H 	0.46146 0.63804 0.46590 0.13400
H 	H 	0.29918 0.64593 0.60965 0.01900
H 	H 	0.25394 0.68951 0.59204 0.01300
H 	H 	0.18864 0.12670 0.56550 0.03500
H 	H 	0.23139 0.58125 0.58454 0.03500
H 	H 	0.19837 0.64427 0.63642 0.04100
H 	H 	0.16511 0.58853 0.62348 0.01100
H 	H 	0.27880 0.59633 0.66327 0.03400
H 	H 	0.23778 0.54289 0.65517 0.03500
H 	H 	0.22955 0.61459 0.71039 0.08000
H 	H 	0.24934 0.55511 0.72424 0.08500
Yb	Yb	0.49705 0.57585 0.02389 1.48600
Yb	Yb	0.08963 0.97168 0.73548 1.48300
Yb	Yb	0.08004 0.04229 0.77538 1.42100
Yb	Yb	0.56637 0.55156 0.98720 1.41500
C 	C 	0.46969 0.58289 0.76743 0.41700
C 	C 	0.99192 0.64934 0.96409 0.36300
C 	C 	0.17073 0.96016 0.79075 0.35000
C 	C 	0.59511 0.94178 0.99430 0.40300
O 	O 	0.54810 0.63709 0.71279 -0.45800
O 	O 	0.02755 0.92985 0.76005 -0.46600
O 	O 	0.44504 0.52044 0.99936 -0.47100
O 	O 	0.15937 0.01198 0.04732 -0.45000
O 	O 	0.51919 0.58642 0.78057 -0.48500
O 	O 	0.03351 0.62697 0.96389 -0.51000
O 	O 	0.15517 0.00336 0.79121 -0.50400
O 	O 	0.60738 0.98796 0.98350 -0.47400
O 	O 	0.06900 0.92904 0.02237 -0.46800
O 	O 	0.45881 0.62981 0.98681 -0.45600
O 	O 	0.14177 0.92865 0.77087 -0.45800
O 	O 	0.45090 0.56611 0.73509 -0.46900
C 	C 	0.09715 0.64159 0.72772 0.34200
O 	O 	0.13471 0.58525 0.01623 -0.49000
O 	O 	0.03625 0.97970 0.80574 -0.50100
O 	O 	0.49810 0.51329 0.95738 -0.50300
O 	O 	0.12082 0.60601 0.74959 -0.47500
C 	C 	0.01587 0.93998 0.79198 0.38400
O 	O 	0.04526 0.52552 0.71429 -0.90400
C 	C 	0.45501 0.50126 0.97072 0.40600
C 	C 	0.17001 0.05815 0.03549 0.33900
C 	C 	0.19642 0.78791 0.86639 -0.33500
Ge	Ge	0.13498 0.80111 0.88349 0.75500
S 	S 	0.58840 0.84363 0.83501 -0.40900
Ge	Ge	0.52328 0.86301 0.85597 0.79800
C 	C 	0.48210 0.90398 0.81432 -0.46700
S 	S 	0.47979 0.79655 0.87743 -0.42600
Ge	Ge	0.52498 0.75131 0.92588 0.77300
C 	C 	0.47693 0.69265 0.93397 -0.42700
S 	S 	0.59201 0.73453 0.90560 -0.41800
S 	S 	0.55050 0.79560 0.97339 -0.40400
Ge	Ge	0.09530 0.86234 0.95152 0.79300
C 	C 	0.12827 0.90560 0.98855 -0.47000
S 	S 	0.16064 0.84276 0.93110 -0.43200
S 	S 	0.54883 0.90495 0.90354 -0.42600
C 	C 	0.18510 0.76899 0.82702 0.01700
C 	C 	0.15109 0.72130 0.82878 -0.09700
C 	C 	0.15293 0.69408 0.79514 -0.06700
C 	C 	0.12476 0.71798 0.75549 -0.00900
C 	C 	0.12610 0.69002 0.72212 -0.21000
H 	H 	0.22162 0.82191 0.86337 0.08800
H 	H 	0.21695 0.76192 0.88952 0.08700
H 	H 	0.45744 0.88114 0.79415 0.12900
H 	H 	0.45725 0.92272 0.82756 0.12600
H 	H 	0.44148 0.70449 0.93981 0.12000
H 	H 	0.46689 0.67996 0.90501 0.11000
H 	H 	0.14213 0.88374 0.01720 0.12600
H 	H 	0.16240 0.92494 0.97732 0.13100
H 	H 	0.16666 0.79629 0.80378 0.02100
H 	H 	0.22229 0.76390 0.81939 0.01700
H 	H 	0.66383 0.69786 0.85685 0.03900
H 	H 	0.11088 0.72785 0.82805 0.03900
H 	H 	0.19317 0.69060 0.79308 0.03600
H 	H 	0.13437 0.65744 0.80281 0.03200
H 	H 	0.14325 0.75472 0.74797 0.02700
H 	H 	0.08440 0.72116 0.75749 0.03500
H 	H 	0.10895 0.71062 0.69378 0.07900
H 	H 	0.16628 0.68607 0.72019 0.08000
C 	C 	0.28166 0.66381 0.87992 -0.34200
Ge	Ge	0.30614 0.60685 0.86839 0.76200
S 	S 	0.34855 0.56779 0.92138 -0.41500
Ge	Ge	0.37921 0.00812 0.90479 0.83500
C 	C 	0.41469 0.96953 0.95019 -0.50600
S 	S 	0.31747 0.96090 0.87853 -0.45000
Ge	Ge	0.27453 0.99917 0.82590 0.77600
C 	C 	0.22291 0.94707 0.81062 -0.43900
S 	S 	0.24334 0.05957 0.84151 -0.41700
S 	S 	0.32832 0.02639 0.78493 -0.40700
Ge	Ge	0.38951 0.57539 0.81234 0.80900
C 	C 	0.43707 0.61273 0.78105 -0.48800
S 	S 	0.35640 0.63431 0.82696 -0.44200
S 	S 	0.43211 0.03571 0.86444 -0.43100
C 	C 	0.26570 0.65536 0.92011 0.02200
C 	C 	0.22112 0.61624 0.92242 -0.09800
C 	C 	0.20315 0.60906 0.96173 -0.05700
C 	C 	0.23879 0.58004 0.99493 -0.01200
C 	C 	0.22409 0.57804 0.03540 -0.21300
H 	H 	0.31305 0.69318 0.87940 0.09000
H 	H 	0.24946 0.67499 0.85654 0.08800
H 	H 	0.38732 0.95279 0.96982 0.13900
H 	H 	0.43191 0.94089 0.94063 0.13700
H 	H 	0.23888 0.92801 0.79124 0.12000
H 	H 	0.21820 0.92127 0.83756 0.11700
H 	H 	0.41517 0.63445 0.75535 0.13500
H 	H 	0.46146 0.63804 0.79924 0.13400
H 	H 	0.29918 0.64593 0.94298 0.01900
H 	H 	0.25394 0.68951 0.92538 0.01400
H 	H 	0.18864 0.12670 0.89883 0.03500
H 	H 	0.23139 0.58125 0.91788 0.03500
H 	H 	0.19837 0.64427 0.96975 0.04100
H 	H 	0.16511 0.58853 0.95681 0.01100
H 	H 	0.27880 0.59633 0.99660 0.03400
H 	H 	0.23778 0.54289 0.98850 0.03500
H 	H 	0.22955 0.61459 0.04372 0.08000
H 	H 	0.24934 0.55511 0.05757 0.08500
Yb	Yb	0.99705 0.07585 0.35722 1.49100
Yb	Yb	0.58963 0.47168 0.06881 1.48800
Yb	Yb	0.58004 0.54229 0.10871 1.41900
Yb	Yb	0.06637 0.05156 0.32053 1.41400
C 	C 	0.96969 0.08289 0.10077 0.42500
C 	C 	0.49192 0.14934 0.29743 0.35500
C 	C 	0.67073 0.46016 0.12408 0.36100
C 	C 	0.09511 0.44178 0.32763 0.40200
O 	O 	0.04811 0.13709 0.04612 -0.46100
O 	O 	0.52755 0.42985 0.09339 -0.46500
O 	O 	0.94504 0.02044 0.33270 -0.47000
O 	O 	0.65937 0.51198 0.38066 -0.45500
O 	O 	0.01919 0.08642 0.11391 -0.48900
O 	O 	0.53351 0.12697 0.29722 -0.50300
O 	O 	0.65517 0.50336 0.12454 -0.51300
O 	O 	0.10738 0.48796 0.31683 -0.47000
O 	O 	0.56900 0.42904 0.35571 -0.46500
O 	O 	0.95881 0.12981 0.32015 -0.45600
O 	O 	0.64177 0.42865 0.10421 -0.46000
O 	O 	0.95090 0.06611 0.06843 -0.46900
C 	C 	0.59715 0.14160 0.06106 0.34100
O 	O 	0.63471 0.08525 0.34956 -0.49000
O 	O 	0.53625 0.47970 0.13908 -0.49700
O 	O 	0.99810 0.01329 0.29071 -0.49900
O 	O 	0.62082 0.10601 0.08292 -0.47500
C 	C 	0.51587 0.43998 0.12532 0.39500
O 	O 	0.54526 0.02552 0.04763 -0.89800
C 	C 	0.95501 0.00126 0.30405 0.41600
C 	C 	0.67001 0.55815 0.36882 0.33900
C 	C 	0.69642 0.28791 0.19972 -0.33500
Ge	Ge	0.63498 0.30111 0.21682 0.75600
S 	S 	0.08840 0.34363 0.16835 -0.40700
Ge	Ge	0.02328 0.36301 0.18930 0.78300
C 	C 	0.98210 0.40398 0.14765 -0.45300
S 	S 	0.97979 0.29655 0.21076 -0.41300
Ge	Ge	0.02498 0.25131 0.25921 0.76000
C 	C 	0.97693 0.19265 0.26731 -0.42100
S 	S 	0.09201 0.23453 0.23893 -0.41700
S 	S 	0.05050 0.29560 0.30673 -0.40500
Ge	Ge	0.59530 0.36234 0.28486 0.79400
C 	C 	0.62827 0.40560 0.32189 -0.47000
S 	S 	0.66064 0.34276 0.26443 -0.43200
S 	S 	0.04883 0.40495 0.23687 -0.42400
C 	C 	0.68510 0.26899 0.16035 0.01700
C 	C 	0.65109 0.22130 0.16212 -0.09700
C 	C 	0.65293 0.19408 0.12848 -0.06600
C 	C 	0.62476 0.21798 0.08882 -0.01000
C 	C 	0.62610 0.19002 0.05545 -0.21000
H 	H 	0.72162 0.32191 0.19670 0.08800
H 	H 	0.71695 0.26192 0.22286 0.08700
H 	H 	0.95744 0.38114 0.12748 0.12800
H 	H 	0.95725 0.42272 0.16089 0.12600
H 	H 	0.94148 0.20449 0.27314 0.12000
H 	H 	0.96689 0.17996 0.23834 0.11000
H 	H 	0.64213 0.38374 0.35053 0.12700
H 	H 	0.66240 0.42494 0.31066 0.13200
H 	H 	0.66666 0.29629 0.13711 0.02100
H 	H 	0.72229 0.26390 0.15272 0.01800
H 	H 	0.16383 0.19786 0.19018 0.03900
H 	H 	0.61088 0.22785 0.16138 0.04000
H 	H 	0.69317 0.19060 0.12641 0.03600
H 	H 	0.63437 0.15744 0.13614 0.03300
H 	H 	0.64325 0.25472 0.08130 0.02700
H 	H 	0.58440 0.22116 0.09083 0.03600
H 	H 	0.60895 0.21062 0.02711 0.07900
H 	H 	0.66628 0.18607 0.05352 0.08000
C 	C 	0.78166 0.16381 0.21325 -0.34200
Ge	Ge	0.80614 0.10685 0.20172 0.76200
S 	S 	0.84855 0.06779 0.25471 -0.41600
Ge	Ge	0.87921 0.50812 0.23812 0.81600
C 	C 	0.91469 0.46953 0.28353 -0.48900
S 	S 	0.81747 0.46090 0.21187 -0.44400
Ge	Ge	0.77453 0.49917 0.15923 0.79500
C 	C 	0.72291 0.44707 0.14395 -0.44500
S 	S 	0.74334 0.55957 0.17485 -0.42600
S 	S 	0.82832 0.52639 0.11826 -0.41800
Ge	Ge	0.88951 0.07539 0.14567 0.81000
C 	C 	0.93707 0.11273 0.11438 -0.49000
S 	S 	0.85640 0.13431 0.16029 -0.44100
S 	S 	0.93211 0.53571 0.19777 -0.42900
C 	C 	0.76570 0.15536 0.25345 0.02100
C 	C 	0.72112 0.11624 0.25576 -0.09800
C 	C 	0.70315 0.10906 0.29506 -0.05700
C 	C 	0.73879 0.08004 0.32826 -0.01300
C 	C 	0.72409 0.07804 0.36874 -0.21100
H 	H 	0.81305 0.19318 0.21274 0.09000
H 	H 	0.74946 0.17499 0.18987 0.08800
H 	H 	0.88732 0.45279 0.30315 0.13800
H 	H 	0.93191 0.44089 0.27396 0.13700
H 	H 	0.73888 0.42801 0.12457 0.12200
H 	H 	0.71820 0.42127 0.17089 0.11800
H 	H 	0.91517 0.13445 0.08869 0.13600
H 	H 	0.96146 0.13804 0.13257 0.13600
H 	H 	0.79918 0.14593 0.27631 0.01900
H 	H 	0.75394 0.18951 0.25871 0.01400
H 	H 	0.68864 0.62670 0.23216 0.03500
H 	H 	0.73139 0.08125 0.25121 0.03600
H 	H 	0.69837 0.14427 0.30309 0.04100
H 	H 	0.66511 0.08853 0.29015 0.01200
H 	H 	0.77880 0.09633 0.32993 0.03400
H 	H 	0.73778 0.04289 0.32184 0.03700
H 	H 	0.72955 0.11459 0.37706 0.08000
H 	H 	0.74934 0.05511 0.39091 0.08600
Yb	Yb	0.99705 0.07585 0.69055 1.49100
Yb	Yb	0.58963 0.47168 0.40215 1.48800
Yb	Yb	0.58004 0.54229 0.44204 1.41900
Yb	Yb	0.06637 0.05156 0.65386 1.41400
C 	C 	0.96969 0.08289 0.43410 0.42500
C 	C 	0.49192 0.14934 0.63076 0.35500
C 	C 	0.67073 0.46016 0.45741 0.36100
C 	C 	0.09511 0.44178 0.66097 0.40200
O 	O 	0.04811 0.13709 0.37946 -0.46100
O 	O 	0.52755 0.42985 0.42672 -0.46500
O 	O 	0.94504 0.02044 0.66603 -0.47000
O 	O 	0.65937 0.51198 0.71399 -0.45500
O 	O 	0.01919 0.08642 0.44724 -0.49000
O 	O 	0.53351 0.12697 0.63055 -0.50300
O 	O 	0.65517 0.50336 0.45787 -0.51300
O 	O 	0.10738 0.48796 0.65017 -0.47000
O 	O 	0.56900 0.42904 0.68904 -0.46500
O 	O 	0.95881 0.12981 0.65348 -0.45600
O 	O 	0.64177 0.42865 0.43754 -0.46000
O 	O 	0.95090 0.06611 0.40176 -0.46900
C 	C 	0.59715 0.14160 0.39439 0.34100
O 	O 	0.63471 0.08525 0.68289 -0.49000
O 	O 	0.53625 0.47970 0.47241 -0.49700
O 	O 	0.99810 0.01329 0.62405 -0.49900
O 	O 	0.62082 0.10601 0.41625 -0.47500
C 	C 	0.51587 0.43998 0.45865 0.39500
O 	O 	0.54526 0.02552 0.38096 -0.89700
C 	C 	0.95501 0.00126 0.63738 0.41600
C 	C 	0.67001 0.55815 0.70215 0.33900
C 	C 	0.69642 0.28791 0.53305 -0.33500
Ge	Ge	0.63498 0.30111 0.55015 0.75600
S 	S 	0.08840 0.34363 0.50168 -0.40700
Ge	Ge	0.02328 0.36301 0.52263 0.78200
C 	C 	0.98210 0.40398 0.48099 -0.45200
S 	S 	0.97979 0.29655 0.54410 -0.41200
Ge	Ge	0.02498 0.25131 0.59254 0.75900
C 	C 	0.97693 0.19265 0.60064 -0.42100
S 	S 	0.09201 0.23453 0.57227 -0.41700
S 	S 	0.05050 0.29560 0.64006 -0.40500
Ge	Ge	0.59530 0.36234 0.61819 0.79400
C 	C 	0.62827 0.40560 0.65522 -0.47000
S 	S 	0.66064 0.34276 0.59776 -0.43200
S 	S 	0.04883 0.40495 0.57020 -0.42400
C 	C 	0.68510 0.26899 0.49369 0.01700
C 	C 	0.65109 0.22130 0.49545 -0.09700
C 	C 	0.65293 0.19408 0.46181 -0.06600
C 	C 	0.62476 0.21798 0.42215 -0.01000
C 	C 	0.62610 0.19002 0.38879 -0.21000
H 	H 	0.72162 0.32191 0.53004 0.08800
H 	H 	0.71695 0.26192 0.55619 0.08700
H 	H 	0.95744 0.38114 0.46081 0.12800
H 	H 	0.95725 0.42272 0.49422 0.12600
H 	H 	0.94148 0.20449 0.60648 0.12000
H 	H 	0.96689 0.17996 0.57167 0.11000
H 	H 	0.64213 0.38374 0.68386 0.12700
H 	H 	0.66240 0.42494 0.64399 0.13200
H 	H 	0.66666 0.29629 0.47045 0.02100
H 	H 	0.72229 0.26390 0.48606 0.01800
H 	H 	0.16383 0.19786 0.52351 0.03900
H 	H 	0.61088 0.22785 0.49472 0.04000
H 	H 	0.69317 0.19060 0.45974 0.03600
H 	H 	0.63437 0.15744 0.46947 0.03300
H 	H 	0.64325 0.25472 0.41463 0.02700
H 	H 	0.58440 0.22116 0.42416 0.03600
H 	H 	0.60895 0.21062 0.36045 0.07900
H 	H 	0.66628 0.18607 0.38685 0.08000
C 	C 	0.78166 0.16381 0.54658 -0.34200
Ge	Ge	0.80614 0.10685 0.53505 0.76200
S 	S 	0.84855 0.06779 0.58805 -0.41600
Ge	Ge	0.87921 0.50812 0.57145 0.81600
C 	C 	0.91469 0.46953 0.61686 -0.48900
S 	S 	0.81747 0.46090 0.54520 -0.44300
Ge	Ge	0.77453 0.49917 0.49256 0.79500
C 	C 	0.72291 0.44707 0.47728 -0.44500
S 	S 	0.74334 0.55957 0.50818 -0.42600
S 	S 	0.82832 0.52639 0.45159 -0.41700
Ge	Ge	0.88951 0.07539 0.47901 0.81000
C 	C 	0.93707 0.11273 0.44772 -0.49100
S 	S 	0.85640 0.13431 0.49363 -0.44100
S 	S 	0.93211 0.53571 0.53110 -0.42900
C 	C 	0.76570 0.15536 0.58678 0.02200
C 	C 	0.72112 0.11624 0.58909 -0.09800
C 	C 	0.70315 0.10906 0.62840 -0.05700
C 	C 	0.73879 0.08004 0.66160 -0.01300
C 	C 	0.72409 0.07804 0.70207 -0.21100
H 	H 	0.81305 0.19318 0.54607 0.09000
H 	H 	0.74946 0.17499 0.52321 0.08800
H 	H 	0.88732 0.45279 0.63648 0.13900
H 	H 	0.93191 0.44089 0.60729 0.13700
H 	H 	0.73888 0.42801 0.45791 0.12300
H 	H 	0.71820 0.42127 0.50423 0.11800
H 	H 	0.91517 0.13445 0.42202 0.13600
H 	H 	0.96146 0.13804 0.46590 0.13700
H 	H 	0.79918 0.14593 0.60965 0.01900
H 	H 	0.75394 0.18951 0.59204 0.01400
H 	H 	0.68864 0.62670 0.56550 0.03500
H 	H 	0.73139 0.08125 0.58454 0.03600
H 	H 	0.69837 0.14427 0.63642 0.04100
H 	H 	0.66511 0.08853 0.62348 0.01200
H 	H 	0.77880 0.09633 0.66327 0.03400
H 	H 	0.73778 0.04289 0.65517 0.03700
H 	H 	0.72955 0.11459 0.71039 0.08000
H 	H 	0.74934 0.05511 0.72424 0.08600
Yb	Yb	0.99705 0.07585 0.02389 1.49000
Yb	Yb	0.58963 0.47168 0.73548 1.48800
Yb	Yb	0.58004 0.54229 0.77538 1.41900
Yb	Yb	0.06637 0.05156 0.98720 1.41400
C 	C 	0.96969 0.08289 0.76743 0.42600
C 	C 	0.49192 0.14934 0.96409 0.35500
C 	C 	0.67073 0.46016 0.79075 0.36100
C 	C 	0.09511 0.44178 0.99430 0.40200
O 	O 	0.04811 0.13709 0.71279 -0.46100
O 	O 	0.52755 0.42985 0.76005 -0.46500
O 	O 	0.94504 0.02044 0.99936 -0.46900
O 	O 	0.65937 0.51198 0.04732 -0.45500
O 	O 	0.01919 0.08642 0.78057 -0.49100
O 	O 	0.53351 0.12697 0.96389 -0.50200
O 	O 	0.65517 0.50336 0.79121 -0.51300
O 	O 	0.10738 0.48796 0.98350 -0.47000
O 	O 	0.56900 0.42904 0.02237 -0.46600
O 	O 	0.95881 0.12981 0.98681 -0.45500
O 	O 	0.64177 0.42865 0.77087 -0.46000
O 	O 	0.95090 0.06611 0.73509 -0.46900
C 	C 	0.59715 0.14160 0.72772 0.34100
O 	O 	0.63471 0.08525 0.01623 -0.49000
O 	O 	0.53625 0.47970 0.80574 -0.49700
O 	O 	0.99810 0.01329 0.95738 -0.49800
O 	O 	0.62082 0.10601 0.74959 -0.47500
C 	C 	0.51587 0.43998 0.79198 0.39500
O 	O 	0.54526 0.02552 0.71429 -0.89700
C 	C 	0.95501 0.00126 0.97072 0.41600
C 	C 	0.67001 0.55815 0.03549 0.33900
C 	C 	0.69642 0.28791 0.86639 -0.33500
Ge	Ge	0.63498 0.30111 0.88349 0.75600
S 	S 	0.08840 0.34363 0.83501 -0.40600
Ge	Ge	0.02328 0.36301 0.85597 0.78000
C 	C 	0.98210 0.40398 0.81432 -0.45000
S 	S 	0.97979 0.29655 0.87743 -0.41100
Ge	Ge	0.02498 0.25131 0.92588 0.75800
C 	C 	0.97693 0.19265 0.93397 -0.42100
S 	S 	0.09201 0.23453 0.90560 -0.41600
S 	S 	0.05050 0.29560 0.97339 -0.40500
Ge	Ge	0.59530 0.36234 0.95152 0.79500
C 	C 	0.62827 0.40560 0.98855 -0.46900
S 	S 	0.66064 0.34276 0.93110 -0.43200
S 	S 	0.04883 0.40495 0.90354 -0.42400
C 	C 	0.68510 0.26899 0.82702 0.01700
C 	C 	0.65109 0.22130 0.82878 -0.09700
C 	C 	0.65293 0.19408 0.79514 -0.06600
C 	C 	0.62476 0.21798 0.75549 -0.01000
C 	C 	0.62610 0.19002 0.72212 -0.21000
H 	H 	0.72162 0.32191 0.86337 0.08800
H 	H 	0.71695 0.26192 0.88952 0.08700
H 	H 	0.95744 0.38114 0.79415 0.12800
H 	H 	0.95725 0.42272 0.82756 0.12600
H 	H 	0.94148 0.20449 0.93981 0.12000
H 	H 	0.96689 0.17996 0.90501 0.11000
H 	H 	0.64213 0.38374 0.01720 0.12600
H 	H 	0.66240 0.42494 0.97732 0.13200
H 	H 	0.66666 0.29629 0.80378 0.02100
H 	H 	0.72229 0.26390 0.81939 0.01800
H 	H 	0.16383 0.19786 0.85685 0.03900
H 	H 	0.61088 0.22785 0.82805 0.04000
H 	H 	0.69317 0.19060 0.79308 0.03600
H 	H 	0.63437 0.15744 0.80281 0.03300
H 	H 	0.64325 0.25472 0.74797 0.02700
H 	H 	0.58440 0.22116 0.75749 0.03600
H 	H 	0.60895 0.21062 0.69378 0.07900
H 	H 	0.66628 0.18607 0.72019 0.08000
C 	C 	0.78166 0.16381 0.87992 -0.34200
Ge	Ge	0.80614 0.10685 0.86839 0.76200
S 	S 	0.84855 0.06779 0.92138 -0.41600
Ge	Ge	0.87921 0.50812 0.90479 0.81600
C 	C 	0.91469 0.46953 0.95019 -0.48900
S 	S 	0.81747 0.46090 0.87853 -0.44300
Ge	Ge	0.77453 0.49917 0.82590 0.79500
C 	C 	0.72291 0.44707 0.81062 -0.44500
S 	S 	0.74334 0.55957 0.84151 -0.42600
S 	S 	0.82832 0.52639 0.78493 -0.41700
Ge	Ge	0.88951 0.07539 0.81234 0.81000
C 	C 	0.93707 0.11273 0.78105 -0.49100
S 	S 	0.85640 0.13431 0.82696 -0.44100
S 	S 	0.93211 0.53571 0.86444 -0.42900
C 	C 	0.76570 0.15536 0.92011 0.02100
C 	C 	0.72112 0.11624 0.92242 -0.09800
C 	C 	0.70315 0.10906 0.96173 -0.05700
C 	C 	0.73879 0.08004 0.99493 -0.01200
C 	C 	0.72409 0.07804 0.03540 -0.21300
H 	H 	0.81305 0.19318 0.87940 0.09000
H 	H 	0.74946 0.17499 0.85654 0.08800
H 	H 	0.88732 0.45279 0.96982 0.13900
H 	H 	0.93191 0.44089 0.94063 0.13700
H 	H 	0.73888 0.42801 0.79124 0.12300
H 	H 	0.71820 0.42127 0.83756 0.11800
H 	H 	0.91517 0.13445 0.75535 0.13600
H 	H 	0.96146 0.13804 0.79924 0.13700
H 	H 	0.79918 0.14593 0.94298 0.01900
H 	H 	0.75394 0.18951 0.92538 0.01400
H 	H 	0.68864 0.62670 0.89883 0.03500
H 	H 	0.73139 0.08125 0.91788 0.03600
H 	H 	0.69837 0.14427 0.96975 0.04200
H 	H 	0.66511 0.08853 0.95681 0.01200
H 	H 	0.77880 0.09633 0.99660 0.03400
H 	H 	0.73778 0.04289 0.98850 0.03700
H 	H 	0.72955 0.11459 0.04372 0.08000
H 	H 	0.74934 0.05511 0.05757 0.08600
Yb	Yb	0.99705 0.57585 0.35722 1.49100
Yb	Yb	0.58963 0.97168 0.06881 1.48300
Yb	Yb	0.58004 0.04229 0.10871 1.42100
Yb	Yb	0.06637 0.55156 0.32053 1.41200
C 	C 	0.96969 0.58289 0.10077 0.42500
C 	C 	0.49192 0.64934 0.29743 0.35500
C 	C 	0.67073 0.96016 0.12408 0.35100
C 	C 	0.09511 0.94178 0.32763 0.40200
O 	O 	0.04810 0.63709 0.04612 -0.46100
O 	O 	0.52755 0.92985 0.09339 -0.46700
O 	O 	0.94504 0.52044 0.33270 -0.47000
O 	O 	0.65937 0.01198 0.38066 -0.45000
O 	O 	0.01919 0.58642 0.11391 -0.49100
O 	O 	0.53351 0.62697 0.29722 -0.50300
O 	O 	0.65517 0.00336 0.12454 -0.50500
O 	O 	0.10738 0.98796 0.31683 -0.47500
O 	O 	0.56900 0.92904 0.35570 -0.46600
O 	O 	0.95881 0.62981 0.32015 -0.45600
O 	O 	0.64177 0.92865 0.10421 -0.45800
O 	O 	0.95090 0.56611 0.06843 -0.47000
C 	C 	0.59715 0.64159 0.06106 0.34100
O 	O 	0.63471 0.58525 0.34956 -0.49000
O 	O 	0.53625 0.97970 0.13908 -0.50100
O 	O 	0.99810 0.51329 0.29071 -0.49900
O 	O 	0.62082 0.60601 0.08292 -0.47500
C 	C 	0.51587 0.93998 0.12532 0.39400
O 	O 	0.54526 0.52552 0.04763 -0.90100
C 	C 	0.95501 0.50126 0.30405 0.40600
C 	C 	0.67001 0.05815 0.36882 0.33900
C 	C 	0.69642 0.78791 0.19972 -0.33500
Ge	Ge	0.63498 0.80111 0.21682 0.75700
S 	S 	0.08840 0.84363 0.16835 -0.40700
Ge	Ge	0.02328 0.86301 0.18930 0.78100
C 	C 	0.98210 0.90398 0.14765 -0.45100
S 	S 	0.97979 0.79655 0.21076 -0.41200
Ge	Ge	0.02498 0.75131 0.25921 0.75800
C 	C 	0.97693 0.69265 0.26731 -0.42100
S 	S 	0.09201 0.73453 0.23893 -0.41700
S 	S 	0.05050 0.79560 0.30673 -0.40500
Ge	Ge	0.59530 0.86234 0.28486 0.79400
C 	C 	0.62827 0.90560 0.32189 -0.47100
S 	S 	0.66064 0.84276 0.26443 -0.43300
S 	S 	0.04883 0.90495 0.23687 -0.42600
C 	C 	0.68510 0.76899 0.16035 0.01700
C 	C 	0.65109 0.72130 0.16212 -0.09700
C 	C 	0.65293 0.69408 0.12848 -0.06600
C 	C 	0.62476 0.71798 0.08882 -0.01000
C 	C 	0.62610 0.69002 0.05545 -0.21000
H 	H 	0.72162 0.82191 0.19670 0.08800
H 	H 	0.71695 0.76192 0.22286 0.08700
H 	H 	0.95744 0.88114 0.12748 0.12800
H 	H 	0.95725 0.92272 0.16089 0.12400
H 	H 	0.94148 0.70449 0.27314 0.12000
H 	H 	0.96689 0.67996 0.23834 0.11000
H 	H 	0.64213 0.88374 0.35053 0.12700
H 	H 	0.66240 0.92494 0.31066 0.13100
H 	H 	0.66666 0.79629 0.13711 0.02100
H 	H 	0.72229 0.76390 0.15272 0.01700
H 	H 	0.16383 0.69786 0.19018 0.03900
H 	H 	0.61088 0.72785 0.16138 0.04000
H 	H 	0.69317 0.69060 0.12641 0.03600
H 	H 	0.63437 0.65744 0.13614 0.03300
H 	H 	0.64325 0.75472 0.08130 0.02700
H 	H 	0.58440 0.72116 0.09083 0.03600
H 	H 	0.60895 0.71062 0.02711 0.07900
H 	H 	0.66628 0.68607 0.05352 0.08000
C 	C 	0.78166 0.66381 0.21325 -0.34200
Ge	Ge	0.80614 0.60685 0.20172 0.76200
S 	S 	0.84855 0.56779 0.25471 -0.41500
Ge	Ge	0.87921 0.00812 0.23812 0.83400
C 	C 	0.91469 0.96953 0.28353 -0.50500
S 	S 	0.81747 0.96090 0.21187 -0.45000
Ge	Ge	0.77453 0.99917 0.15923 0.77600
C 	C 	0.72291 0.94707 0.14395 -0.43900
S 	S 	0.74334 0.05957 0.17485 -0.41800
S 	S 	0.82832 0.02639 0.11826 -0.40800
Ge	Ge	0.88951 0.57539 0.14567 0.81000
C 	C 	0.93707 0.61273 0.11438 -0.49100
S 	S 	0.85640 0.63431 0.16029 -0.44100
S 	S 	0.93211 0.03571 0.19777 -0.42900
C 	C 	0.76570 0.65536 0.25345 0.02100
C 	C 	0.72112 0.61624 0.25576 -0.09800
C 	C 	0.70315 0.60906 0.29506 -0.05700
C 	C 	0.73879 0.58004 0.32826 -0.01300
C 	C 	0.72409 0.57804 0.36874 -0.21200
H 	H 	0.81305 0.69318 0.21274 0.09000
H 	H 	0.74946 0.67499 0.18987 0.08800
H 	H 	0.88732 0.95279 0.30315 0.14000
H 	H 	0.93191 0.94089 0.27396 0.13900
H 	H 	0.73888 0.92801 0.12457 0.12000
H 	H 	0.71820 0.92127 0.17089 0.11700
H 	H 	0.91517 0.63445 0.08869 0.13600
H 	H 	0.96146 0.63804 0.13257 0.13700
H 	H 	0.79918 0.64593 0.27631 0.01900
H 	H 	0.75394 0.68951 0.25871 0.01400
H 	H 	0.68864 0.12670 0.23216 0.03500
H 	H 	0.73139 0.58125 0.25121 0.03500
H 	H 	0.69837 0.64427 0.30309 0.04100
H 	H 	0.66511 0.58853 0.29015 0.01100
H 	H 	0.77880 0.59633 0.32993 0.03400
H 	H 	0.73778 0.54289 0.32184 0.03500
H 	H 	0.72955 0.61459 0.37706 0.08000
H 	H 	0.74934 0.55511 0.39091 0.08500
Yb	Yb	0.99705 0.57585 0.69055 1.49200
Yb	Yb	0.58963 0.97168 0.40215 1.48300
Yb	Yb	0.58004 0.04229 0.44204 1.42100
Yb	Yb	0.06637 0.55156 0.65386 1.41200
C 	C 	0.96969 0.58289 0.43410 0.42600
C 	C 	0.49192 0.64934 0.63076 0.35500
C 	C 	0.67073 0.96016 0.45741 0.35100
C 	C 	0.09511 0.94178 0.66097 0.40200
O 	O 	0.04810 0.63709 0.37946 -0.46100
O 	O 	0.52755 0.92985 0.42672 -0.46600
O 	O 	0.94504 0.52044 0.66603 -0.47000
O 	O 	0.65937 0.01198 0.71399 -0.45000
O 	O 	0.01919 0.58642 0.44724 -0.49200
O 	O 	0.53351 0.62697 0.63055 -0.50300
O 	O 	0.65517 0.00336 0.45787 -0.50500
O 	O 	0.10738 0.98796 0.65016 -0.47500
O 	O 	0.56900 0.92904 0.68904 -0.46600
O 	O 	0.95881 0.62981 0.65348 -0.45600
O 	O 	0.64177 0.92865 0.43754 -0.45800
O 	O 	0.95090 0.56611 0.40176 -0.47000
C 	C 	0.59715 0.64159 0.39439 0.34100
O 	O 	0.63471 0.58525 0.68289 -0.49000
O 	O 	0.53625 0.97970 0.47241 -0.50100
O 	O 	0.99810 0.51329 0.62405 -0.49900
O 	O 	0.62082 0.60601 0.41625 -0.47500
C 	C 	0.51587 0.93998 0.45865 0.39400
O 	O 	0.54526 0.52552 0.38096 -0.90100
C 	C 	0.95501 0.50126 0.63738 0.40700
C 	C 	0.67001 0.05815 0.70215 0.33900
C 	C 	0.69642 0.78791 0.53305 -0.33500
Ge	Ge	0.63498 0.80111 0.55015 0.75700
S 	S 	0.08840 0.84363 0.50168 -0.40700
Ge	Ge	0.02328 0.86301 0.52263 0.78000
C 	C 	0.98210 0.90398 0.48099 -0.45000
S 	S 	0.97979 0.79655 0.54410 -0.41000
Ge	Ge	0.02498 0.75131 0.59254 0.75700
C 	C 	0.97693 0.69265 0.60064 -0.42000
S 	S 	0.09201 0.73453 0.57227 -0.41700
S 	S 	0.05050 0.79560 0.64006 -0.40500
Ge	Ge	0.59530 0.86234 0.61819 0.79400
C 	C 	0.62827 0.90560 0.65522 -0.47100
S 	S 	0.66064 0.84276 0.59776 -0.43300
S 	S 	0.04883 0.90495 0.57020 -0.42600
C 	C 	0.68510 0.76899 0.49369 0.01700
C 	C 	0.65109 0.72130 0.49545 -0.09700
C 	C 	0.65293 0.69408 0.46181 -0.06600
C 	C 	0.62476 0.71798 0.42215 -0.01000
C 	C 	0.62610 0.69002 0.38879 -0.21000
H 	H 	0.72162 0.82191 0.53004 0.08800
H 	H 	0.71695 0.76192 0.55619 0.08700
H 	H 	0.95744 0.88114 0.46081 0.12800
H 	H 	0.95725 0.92272 0.49422 0.12400
H 	H 	0.94148 0.70449 0.60648 0.11900
H 	H 	0.96689 0.67996 0.57167 0.11000
H 	H 	0.64213 0.88374 0.68386 0.12700
H 	H 	0.66240 0.92494 0.64399 0.13100
H 	H 	0.66666 0.79629 0.47045 0.02100
H 	H 	0.72229 0.76390 0.48606 0.01800
H 	H 	0.16383 0.69786 0.52351 0.03900
H 	H 	0.61088 0.72785 0.49472 0.04000
H 	H 	0.69317 0.69060 0.45974 0.03600
H 	H 	0.63437 0.65744 0.46947 0.03300
H 	H 	0.64325 0.75472 0.41463 0.02700
H 	H 	0.58440 0.72116 0.42416 0.03600
H 	H 	0.60895 0.71062 0.36045 0.07900
H 	H 	0.66628 0.68607 0.38685 0.08000
C 	C 	0.78166 0.66381 0.54658 -0.34200
Ge	Ge	0.80614 0.60685 0.53505 0.76200
S 	S 	0.84855 0.56779 0.58805 -0.41500
Ge	Ge	0.87921 0.00812 0.57145 0.83300
C 	C 	0.91469 0.96953 0.61686 -0.50500
S 	S 	0.81747 0.96090 0.54520 -0.44900
Ge	Ge	0.77453 0.99917 0.49256 0.77700
C 	C 	0.72291 0.94707 0.47728 -0.43900
S 	S 	0.74334 0.05957 0.50818 -0.41800
S 	S 	0.82832 0.02639 0.45159 -0.40800
Ge	Ge	0.88951 0.57539 0.47901 0.81000
C 	C 	0.93707 0.61273 0.44772 -0.49100
S 	S 	0.85640 0.63431 0.49363 -0.44100
S 	S 	0.93211 0.03571 0.53110 -0.42900
C 	C 	0.76570 0.65536 0.58678 0.02100
C 	C 	0.72112 0.61624 0.58909 -0.09800
C 	C 	0.70315 0.60906 0.62840 -0.05700
C 	C 	0.73879 0.58004 0.66160 -0.01300
C 	C 	0.72409 0.57804 0.70207 -0.21200
H 	H 	0.81305 0.69318 0.54607 0.09000
H 	H 	0.74946 0.67499 0.52321 0.08800
H 	H 	0.88732 0.95279 0.63648 0.14000
H 	H 	0.93191 0.94089 0.60729 0.13900
H 	H 	0.73888 0.92801 0.45791 0.12100
H 	H 	0.71820 0.92127 0.50423 0.11700
H 	H 	0.91517 0.63445 0.42202 0.13600
H 	H 	0.96146 0.63804 0.46590 0.13700
H 	H 	0.79918 0.64593 0.60965 0.01900
H 	H 	0.75394 0.68951 0.59204 0.01400
H 	H 	0.68864 0.12670 0.56550 0.03500
H 	H 	0.73139 0.58125 0.58454 0.03500
H 	H 	0.69837 0.64427 0.63642 0.04100
H 	H 	0.66511 0.58853 0.62348 0.01100
H 	H 	0.77880 0.59633 0.66327 0.03400
H 	H 	0.73778 0.54289 0.65517 0.03500
H 	H 	0.72955 0.61459 0.71039 0.08000
H 	H 	0.74934 0.55511 0.72424 0.08500
Yb	Yb	0.99705 0.57585 0.02389 1.49000
Yb	Yb	0.58963 0.97168 0.73548 1.48300
Yb	Yb	0.58004 0.04229 0.77538 1.42100
Yb	Yb	0.06637 0.55156 0.98720 1.41200
C 	C 	0.96969 0.58289 0.76743 0.42700
C 	C 	0.49192 0.64934 0.96409 0.35500
C 	C 	0.67073 0.96016 0.79075 0.35100
C 	C 	0.09511 0.94178 0.99430 0.40200
O 	O 	0.04810 0.63709 0.71279 -0.46200
O 	O 	0.52755 0.92985 0.76005 -0.46600
O 	O 	0.94504 0.52044 0.99936 -0.46900
O 	O 	0.65937 0.01198 0.04732 -0.45000
O 	O 	0.01919 0.58642 0.78057 -0.49200
O 	O 	0.53351 0.62697 0.96389 -0.50200
O 	O 	0.65517 0.00336 0.79121 -0.50500
O 	O 	0.10738 0.98796 0.98350 -0.47500
O 	O 	0.56900 0.92904 0.02237 -0.46800
O 	O 	0.95881 0.62981 0.98681 -0.45500
O 	O 	0.64177 0.92865 0.77087 -0.45800
O 	O 	0.95090 0.56611 0.73509 -0.47000
C 	C 	0.59715 0.64159 0.72772 0.34100
O 	O 	0.63471 0.58525 0.01623 -0.49100
O 	O 	0.53625 0.97970 0.80574 -0.50100
O 	O 	0.99810 0.51329 0.95738 -0.49900
O 	O 	0.62082 0.60601 0.74959 -0.47500
C 	C 	0.51587 0.93998 0.79198 0.39400
O 	O 	0.54526 0.52552 0.71429 -0.90100
C 	C 	0.95501 0.50126 0.97072 0.40700
C 	C 	0.67001 0.05815 0.03549 0.33900
C 	C 	0.69642 0.78791 0.86639 -0.33500
Ge	Ge	0.63498 0.80111 0.88349 0.75600
S 	S 	0.08840 0.84363 0.83501 -0.40700
Ge	Ge	0.02328 0.86301 0.85597 0.77800
C 	C 	0.98210 0.90398 0.81432 -0.44900
S 	S 	0.97979 0.79655 0.87743 -0.40900
Ge	Ge	0.02498 0.75131 0.92588 0.75600
C 	C 	0.97693 0.69265 0.93397 -0.42000
S 	S 	0.09201 0.73453 0.90560 -0.41600
S 	S 	0.05050 0.79560 0.97339 -0.40500
Ge	Ge	0.59530 0.86234 0.95152 0.79400
C 	C 	0.62827 0.90560 0.98855 -0.46900
S 	S 	0.66064 0.84276 0.93110 -0.43200
S 	S 	0.04883 0.90495 0.90354 -0.42600
C 	C 	0.68510 0.76899 0.82702 0.01700
C 	C 	0.65109 0.72130 0.82878 -0.09700
C 	C 	0.65293 0.69408 0.79514 -0.06600
C 	C 	0.62476 0.71798 0.75549 -0.01000
C 	C 	0.62610 0.69002 0.72212 -0.21000
H 	H 	0.72162 0.82191 0.86337 0.08800
H 	H 	0.71695 0.76192 0.88952 0.08700
H 	H 	0.95744 0.88114 0.79415 0.12800
H 	H 	0.95725 0.92272 0.82756 0.12400
H 	H 	0.94148 0.70449 0.93981 0.12000
H 	H 	0.96689 0.67996 0.90501 0.11000
H 	H 	0.64213 0.88374 0.01720 0.12500
H 	H 	0.66240 0.92494 0.97732 0.13100
H 	H 	0.66666 0.79629 0.80378 0.02100
H 	H 	0.72229 0.76390 0.81939 0.01800
H 	H 	0.16383 0.69786 0.85685 0.03900
H 	H 	0.61088 0.72785 0.82805 0.04000
H 	H 	0.69317 0.69060 0.79308 0.03600
H 	H 	0.63437 0.65744 0.80281 0.03300
H 	H 	0.64325 0.75472 0.74797 0.02700
H 	H 	0.58440 0.72116 0.75749 0.03600
H 	H 	0.60895 0.71062 0.69378 0.07900
H 	H 	0.66628 0.68607 0.72019 0.08000
C 	C 	0.78166 0.66381 0.87992 -0.34200
Ge	Ge	0.80614 0.60685 0.86839 0.76200
S 	S 	0.84855 0.56779 0.92138 -0.41500
Ge	Ge	0.87921 0.00812 0.90479 0.83300
C 	C 	0.91469 0.96953 0.95019 -0.50400
S 	S 	0.81747 0.96090 0.87853 -0.44900
Ge	Ge	0.77453 0.99917 0.82590 0.77800
C 	C 	0.72291 0.94707 0.81062 -0.44000
S 	S 	0.74334 0.05957 0.84151 -0.41800
S 	S 	0.82832 0.02639 0.78493 -0.40800
Ge	Ge	0.88951 0.57539 0.81234 0.81000
C 	C 	0.93707 0.61273 0.78105 -0.49100
S 	S 	0.85640 0.63431 0.82696 -0.44100
S 	S 	0.93211 0.03571 0.86444 -0.42800
C 	C 	0.76570 0.65536 0.92011 0.02100
C 	C 	0.72112 0.61624 0.92242 -0.09800
C 	C 	0.70315 0.60906 0.96173 -0.05700
C 	C 	0.73879 0.58004 0.99493 -0.01100
C 	C 	0.72409 0.57804 0.03540 -0.21400
H 	H 	0.81305 0.69318 0.87940 0.09000
H 	H 	0.74946 0.67499 0.85654 0.08800
H 	H 	0.88732 0.95279 0.96982 0.14000
H 	H 	0.93191 0.94089 0.94063 0.13900
H 	H 	0.73888 0.92801 0.79124 0.12100
H 	H 	0.71820 0.92127 0.83756 0.11700
H 	H 	0.91517 0.63445 0.75535 0.13600
H 	H 	0.96146 0.63804 0.79924 0.13700
H 	H 	0.79918 0.64593 0.94298 0.01900
H 	H 	0.75394 0.68951 0.92538 0.01400
H 	H 	0.68864 0.12670 0.89883 0.03500
H 	H 	0.73139 0.58125 0.91788 0.03500
H 	H 	0.69837 0.64427 0.96975 0.04200
H 	H 	0.66511 0.58853 0.95681 0.01100
H 	H 	0.77880 0.59633 0.99660 0.03400
H 	H 	0.73778 0.54289 0.98850 0.03500
H 	H 	0.72955 0.61459 0.04372 0.08000
H 	H 	0.74934 0.55511 0.05757 0.08500
