data_crystal

_cell_length_a 16.84587
_cell_length_b 16.79173
_cell_length_c 16.85738
_cell_angle_alpha 67.83889
_cell_angle_beta  67.78563
_cell_angle_gamma 67.84537

_symmetry_space_group_name_	'P 1'
_symmetry_space_group_name_H-M	'P 1'

loop_
_symmetry_equiv_pos_as_xyz
  x,y,z

loop_
_atom_site_label
_atom_site_type_symbol
_atom_site_fract_x
_atom_site_fract_y
_atom_site_fract_z
_atom_site_charge
C 	C 	0.02719 0.82846 0.56492 0.40100
C 	C 	0.02693 0.56503 0.82848 0.40300
C 	C 	0.17134 0.97248 0.43521 0.40300
C 	C 	0.83064 0.01667 0.56873 0.39900
C 	C 	0.45582 0.05832 0.70734 -0.23200
C 	C 	0.51188 0.03188 0.27108 -0.22100
C 	C 	0.05833 0.70730 0.45522 -0.23900
C 	C 	0.93801 0.29329 0.54550 -0.23800
C 	C 	0.74287 0.51144 0.92950 -0.23400
C 	C 	0.29257 0.54927 0.93154 -0.23700
C 	C 	0.29316 0.93868 0.54467 -0.23500
C 	C 	0.97257 0.17154 0.43515 0.40500
C 	C 	0.73059 0.96335 0.49070 -0.23300
C 	C 	0.54940 0.29522 0.92646 -0.23800
C 	C 	0.46036 0.70388 0.05059 -0.23900
C 	C 	0.94130 0.54598 0.29216 -0.23900
C 	C 	0.05490 0.45473 0.70855 -0.23700
C 	C 	0.54591 0.00506 0.55174 0.13900
C 	C 	0.45009 0.98979 0.45556 0.10600
C 	C 	0.01712 0.54460 0.54491 0.12100
C 	C 	0.97775 0.45676 0.45648 0.12800
C 	C 	0.55685 0.56069 0.97497 0.12400
C 	C 	0.83137 0.56951 0.01470 0.41000
C 	C 	0.46506 0.46678 0.94810 0.12200
C 	C 	0.58876 0.99225 0.46606 -0.10500
C 	C 	0.41172 0.98589 0.54685 -0.07800
C 	C 	0.00951 0.45627 0.58702 -0.06500
C 	C 	0.98494 0.54519 0.41452 -0.07900
C 	C 	0.46357 0.59318 0.98785 -0.07300
C 	C 	0.55797 0.43170 0.93880 -0.07200
C 	C 	0.53630 0.00151 0.41325 -0.04000
C 	C 	0.45447 0.00920 0.58975 -0.06600
C 	C 	0.42096 0.55270 0.96150 -0.07300
C 	C 	0.17171 0.43522 0.97234 0.40300
C 	C 	0.60550 0.48507 0.94140 -0.07100
C 	C 	0.98294 0.41498 0.54528 -0.07700
C 	C 	0.01153 0.58651 0.45621 -0.06700
C 	C 	0.40898 0.04181 0.66519 0.40200
C 	C 	0.56385 0.02877 0.31995 0.39300
C 	C 	0.04258 0.66330 0.40977 0.40300
C 	C 	0.95229 0.33791 0.59142 0.40700
C 	C 	0.69918 0.46862 0.90952 0.39900
C 	C 	0.33797 0.59642 0.94297 0.40500
C 	C 	0.33570 0.95409 0.59191 0.40200
C 	C 	0.56485 0.02734 0.82868 0.40200
C 	C 	0.68216 0.96487 0.43910 0.40700
C 	C 	0.59844 0.34397 0.92979 0.40000
C 	C 	0.41572 0.66106 0.03191 0.40400
C 	C 	0.95605 0.59163 0.33677 0.40600
C 	C 	0.03874 0.40956 0.66454 0.40500
C 	C 	0.54995 0.03631 0.68051 0.23500
C 	C 	0.43624 0.99830 0.31272 0.22800
C 	C 	0.04239 0.67787 0.54856 0.24200
C 	C 	0.95474 0.32267 0.45207 0.24500
C 	C 	0.69529 0.57420 0.97937 0.23900
C 	C 	0.43140 0.98299 0.16948 0.40500
C 	C 	0.32447 0.45569 0.94528 0.23800
C 	C 	0.32021 0.96112 0.45058 0.24000
C 	C 	0.68827 0.99840 0.56530 0.20400
C 	C 	0.45592 0.32622 0.94190 0.23700
C 	C 	0.55399 0.68121 0.02628 0.24900
C 	C 	0.95610 0.45240 0.32201 0.24500
C 	C 	0.04096 0.54822 0.67861 0.24200
C 	C 	0.60067 0.03696 0.73134 -0.26200
C 	C 	0.39214 0.98231 0.26486 -0.26400
C 	C 	0.04085 0.72985 0.59967 -0.26900
C 	C 	0.43550 0.17184 0.97177 0.39800
C 	C 	0.95818 0.27023 0.40048 -0.26600
C 	C 	0.73785 0.61107 0.01041 -0.27000
C 	C 	0.27084 0.40167 0.95559 -0.26200
C 	C 	0.26887 0.96214 0.39949 -0.26900
C 	C 	0.73551 0.01645 0.60843 -0.24300
C 	C 	0.40194 0.27137 0.95443 -0.26100
C 	C 	0.60155 0.73102 0.03433 -0.27300
C 	C 	0.95879 0.40059 0.26997 -0.26600
C 	C 	0.04018 0.59955 0.73015 -0.27000
C 	C 	0.69077 0.03472 0.69137 0.45500
C 	C 	0.56489 0.82841 0.02710 0.40800
C 	C 	0.30863 0.96515 0.30923 0.46200
C 	C 	0.04126 0.68919 0.68922 0.46000
C 	C 	0.95882 0.31064 0.31063 0.46300
C 	C 	0.69048 0.69049 0.03568 0.46800
C 	C 	0.31097 0.31086 0.95930 0.45700
C 	C 	0.59473 0.01385 0.59908 -0.15600
C 	C 	0.40234 0.98236 0.40626 -0.16800
C 	C 	0.03267 0.59063 0.59111 -0.17600
C 	C 	0.96352 0.41027 0.40983 -0.17900
C 	C 	0.60195 0.60499 0.99420 -0.18100
C 	C 	0.97281 0.43504 0.17153 0.40900
C 	C 	0.41507 0.41591 0.94526 -0.17200
Cu	Cu	0.99518 0.99518 0.42463 0.91000
Cu	Cu	0.00482 0.00482 0.57537 0.92400
Cu	Cu	0.99518 0.42463 0.99518 0.91500
Cu	Cu	0.00482 0.57537 0.00482 0.91700
Cu	Cu	0.42463 0.99518 0.99518 0.91200
Cu	Cu	0.57537 0.00482 0.00482 0.92100
F 	F 	0.31858 0.06762 0.69273 -0.38300
F 	F 	0.32569 0.68075 0.06530 -0.38900
F 	F 	0.93191 0.68231 0.30866 -0.38700
F 	F 	0.06228 0.31888 0.69275 -0.38300
F 	F 	0.73569 0.04880 0.73480 -0.42000
F 	F 	0.26440 0.95305 0.26373 -0.42200
F 	F 	0.04169 0.73792 0.73762 -0.42400
F 	F 	0.96078 0.26128 0.26159 -0.41800
F 	F 	0.73152 0.73001 0.05992 -0.42300
F 	F 	0.25972 0.25922 0.97074 -0.41900
F 	F 	0.63533 0.06255 0.27565 -0.38900
F 	F 	0.06799 0.69077 0.31940 -0.38500
F 	F 	0.92625 0.31055 0.68179 -0.37500
F 	F 	0.74871 0.41983 0.85014 -0.38300
F 	F 	0.30455 0.68659 0.92621 -0.38600
F 	F 	0.30778 0.92822 0.68226 -0.39000
F 	F 	0.72693 0.92998 0.36843 -0.39400
F 	F 	0.68339 0.29943 0.93363 -0.38200
H 	H 	0.41645 0.09172 0.75902 0.16700
H 	H 	0.42017 0.75183 0.08860 0.17100
H 	H 	0.91298 0.58665 0.23726 0.17300
H 	H 	0.08398 0.41358 0.76283 0.17000
H 	H 	0.53093 0.06480 0.20103 0.16100
H 	H 	0.08841 0.76129 0.41472 0.17000
H 	H 	0.90872 0.23866 0.58554 0.17300
H 	H 	0.81416 0.49826 0.90069 0.15600
H 	H 	0.23408 0.58879 0.90878 0.16900
H 	H 	0.24081 0.90604 0.58366 0.16700
H 	H 	0.80087 0.93088 0.47216 0.15700
H 	H 	0.58825 0.23327 0.91000 0.17200
O 	O 	0.12454 0.97864 0.38546 -0.32900
O 	O 	0.12454 0.38546 0.97864 -0.32300
O 	O 	0.02136 0.87546 0.61454 -0.33300
O 	O 	0.97864 0.12454 0.38546 -0.31900
O 	O 	0.01378 0.86737 0.48719 -0.38700
O 	O 	0.98622 0.13263 0.51281 -0.37700
O 	O 	0.86737 0.48719 0.01378 -0.37800
O 	O 	0.13263 0.51281 0.98622 -0.37900
O 	O 	0.48719 0.01378 0.86737 -0.37500
O 	O 	0.51281 0.98622 0.13263 -0.38400
O 	O 	0.51281 0.13263 0.98622 -0.38300
O 	O 	0.87546 0.02136 0.61454 -0.32400
O 	O 	0.48719 0.86737 0.01378 -0.38200
O 	O 	0.98622 0.51281 0.13263 -0.37900
O 	O 	0.01378 0.48719 0.86737 -0.38600
O 	O 	0.13263 0.98622 0.51281 -0.38300
O 	O 	0.86737 0.01378 0.48719 -0.37000
O 	O 	0.97864 0.38546 0.12454 -0.32200
O 	O 	0.02136 0.61454 0.87546 -0.33100
O 	O 	0.38546 0.12454 0.97864 -0.32200
O 	O 	0.61454 0.87546 0.02136 -0.33200
O 	O 	0.61454 0.02136 0.87546 -0.32600
O 	O 	0.38546 0.97864 0.12454 -0.32800
O 	O 	0.87546 0.61454 0.02136 -0.33400
