data_crystal

_cell_length_a 7.22332
_cell_length_b 12.14028
_cell_length_c 29.09794
_cell_angle_alpha 90.00005
_cell_angle_beta  89.96745
_cell_angle_gamma 90.23178

_symmetry_space_group_name_	'P 1'
_symmetry_space_group_name_H-M	'P 1'

loop_
_symmetry_equiv_pos_as_xyz
  x,y,z

loop_
_atom_site_label
_atom_site_type_symbol
_atom_site_fract_x
_atom_site_fract_y
_atom_site_fract_z
_atom_site_charge
O 	O 	0.64717 0.84918 0.20122 -0.46800
O 	O 	0.35283 0.15082 0.79878 -0.46800
O 	O 	0.35283 0.15082 0.70122 -0.46800
O 	O 	0.64717 0.84918 0.29878 -0.46900
O 	O 	0.14717 0.65082 0.29878 -0.47100
O 	O 	0.85283 0.34918 0.70122 -0.47100
O 	O 	0.85283 0.34918 0.79878 -0.47100
O 	O 	0.14717 0.65082 0.20122 -0.47100
O 	O 	0.31743 0.86221 0.29845 -0.47500
O 	O 	0.68257 0.13779 0.70155 -0.47500
O 	O 	0.68257 0.13779 0.79845 -0.47500
O 	O 	0.31743 0.86221 0.20155 -0.47500
O 	O 	0.81743 0.63779 0.20155 -0.47500
O 	O 	0.18257 0.36221 0.79845 -0.47500
O 	O 	0.18257 0.36221 0.70155 -0.47400
O 	O 	0.81743 0.63779 0.29845 -0.47400
C 	C 	0.48601 0.88777 0.31333 0.34200
C 	C 	0.51399 0.11223 0.68667 0.34200
C 	C 	0.51391 0.11223 0.81332 0.34200
C 	C 	0.48609 0.88777 0.18668 0.34200
C 	C 	0.98549 0.61219 0.18666 0.34400
C 	C 	0.01451 0.38781 0.81334 0.34400
C 	C 	0.01459 0.38781 0.68666 0.34400
C 	C 	0.98541 0.61219 0.31334 0.34400
H 	H 	0.95742 0.26094 0.37345 0.05200
H 	H 	0.04258 0.73906 0.62655 0.05200
H 	H 	0.03625 0.73930 0.87338 0.05200
H 	H 	0.96375 0.26070 0.12662 0.05200
H 	H 	0.53831 0.23847 0.12685 0.05200
H 	H 	0.46169 0.76153 0.87315 0.05200
H 	H 	0.46783 0.76121 0.62687 0.05200
H 	H 	0.53217 0.23879 0.37313 0.05200
O 	O 	0.48063 0.68063 0.25000 -0.61400
O 	O 	0.51937 0.31937 0.75000 -0.61400
O 	O 	0.98063 0.81937 0.25000 -0.61100
O 	O 	0.01937 0.18063 0.75000 -0.61100
V 	V 	0.20580 0.76286 0.25000 1.79400
V 	V 	0.79420 0.23714 0.75000 1.79400
V 	V 	0.70580 0.73714 0.25000 1.79500
V 	V 	0.29420 0.26286 0.75000 1.79500
H 	H 	0.97420 0.28348 0.53258 0.03900
H 	H 	0.02580 0.71652 0.46742 0.03900
H 	H 	0.02116 0.71676 0.03254 0.03900
H 	H 	0.97884 0.28324 0.96746 0.03900
H 	H 	0.53394 0.21634 0.96764 0.04000
H 	H 	0.46606 0.78366 0.03236 0.04000
H 	H 	0.47057 0.78343 0.46765 0.04000
H 	H 	0.52943 0.21657 0.53235 0.04000
C 	C 	0.99112 0.53441 0.35171 -0.08700
C 	C 	0.00888 0.46559 0.64829 -0.08700
C 	C 	0.00846 0.46555 0.85171 -0.08700
C 	C 	0.99154 0.53445 0.14829 -0.08700
C 	C 	0.49527 0.96532 0.14828 -0.08900
C 	C 	0.50474 0.03468 0.85172 -0.08900
C 	C 	0.50515 0.03468 0.64828 -0.08900
C 	C 	0.49485 0.96532 0.35172 -0.08900
C 	C 	0.97060 0.34834 0.38044 -0.07300
C 	C 	0.02940 0.65166 0.61956 -0.07300
C 	C 	0.02517 0.65179 0.88040 -0.07300
C 	C 	0.97483 0.34821 0.11960 -0.07300
C 	C 	0.52411 0.15117 0.11976 -0.07400
C 	C 	0.47589 0.84883 0.88024 -0.07400
C 	C 	0.48002 0.84863 0.61977 -0.07400
C 	C 	0.51999 0.15137 0.38023 -0.07400
C 	C 	0.97405 0.42158 0.34364 0.02600
C 	C 	0.02595 0.57842 0.65636 0.02600
C 	C 	0.02282 0.57851 0.84361 0.02600
C 	C 	0.97718 0.42149 0.15639 0.02600
C 	C 	0.51346 0.07801 0.15651 0.02600
C 	C 	0.48654 0.92199 0.84349 0.02600
C 	C 	0.48956 0.92184 0.65651 0.02600
C 	C 	0.51043 0.07816 0.34349 0.02600
C 	C 	0.00360 0.57436 0.39672 0.00300
C 	C 	0.99640 0.42564 0.60328 0.00300
C 	C 	0.99755 0.42553 0.89674 0.00300
C 	C 	0.00245 0.57447 0.10326 0.00300
C 	C 	0.48806 0.92544 0.10319 0.00700
C 	C 	0.51194 0.07456 0.89681 0.00700
C 	C 	0.51089 0.07464 0.60319 0.00700
C 	C 	0.48911 0.92536 0.39681 0.00700
C 	C 	0.99726 0.50194 0.43493 -0.01900
C 	C 	0.00274 0.49806 0.56507 -0.01900
C 	C 	0.00253 0.49803 0.93493 -0.01900
C 	C 	0.99747 0.50197 0.06507 -0.01900
C 	C 	0.49925 0.99785 0.06506 -0.02200
C 	C 	0.50075 0.00215 0.93494 -0.02200
C 	C 	0.50100 0.00215 0.56506 -0.02200
C 	C 	0.49900 0.99785 0.43494 -0.02200
C 	C 	0.98137 0.38734 0.42580 0.04100
C 	C 	0.01863 0.61266 0.57420 0.04100
C 	C 	0.01576 0.61274 0.92578 0.04100
C 	C 	0.98424 0.38726 0.07422 0.04100
C 	C 	0.51719 0.11229 0.07432 0.04100
C 	C 	0.48281 0.88771 0.92568 0.04100
C 	C 	0.48565 0.88757 0.57433 0.04100
C 	C 	0.51435 0.11243 0.42567 0.04100
C 	C 	0.00427 0.53924 0.48163 0.00500
C 	C 	0.99573 0.46076 0.51836 0.00500
C 	C 	0.99654 0.46071 0.98164 0.00500
C 	C 	0.00346 0.53929 0.01835 0.00500
C 	C 	0.49374 0.96074 0.01832 0.00600
C 	C 	0.50626 0.03925 0.98168 0.00600
C 	C 	0.50549 0.03930 0.51832 0.00600
C 	C 	0.49451 0.96070 0.48168 0.00600
C 	C 	0.98127 0.34769 0.50715 -0.03200
C 	C 	0.01873 0.65231 0.49284 -0.03200
C 	C 	0.01541 0.65247 0.00712 -0.03200
C 	C 	0.98459 0.34753 0.99288 -0.03200
C 	C 	0.52358 0.15213 0.99300 -0.03200
C 	C 	0.47642 0.84787 0.00700 -0.03200
C 	C 	0.47967 0.84770 0.49301 -0.03200
C 	C 	0.52033 0.15230 0.50699 -0.03200
C 	C 	0.97468 0.31219 0.46189 -0.05700
C 	C 	0.02532 0.68781 0.53811 -0.05600
C 	C 	0.02101 0.68797 0.96185 -0.05600
C 	C 	0.97898 0.31203 0.03815 -0.05600
C 	C 	0.52857 0.18744 0.03831 -0.05700
C 	C 	0.47143 0.81256 0.96169 -0.05700
C 	C 	0.47569 0.81235 0.53832 -0.05700
C 	C 	0.52431 0.18765 0.46168 -0.05700
H 	H 	0.96292 0.22460 0.45507 0.04700
H 	H 	0.03708 0.77540 0.54493 0.04700
H 	H 	0.03080 0.77566 0.95501 0.04700
H 	H 	0.96920 0.22434 0.04499 0.04700
H 	H 	0.54217 0.27491 0.04521 0.04700
H 	H 	0.45783 0.72509 0.95479 0.04700
H 	H 	0.46404 0.72478 0.54523 0.04700
H 	H 	0.53596 0.27522 0.45477 0.04700
H 	H 	0.03734 0.60963 0.69114 0.03000
H 	H 	0.96266 0.39037 0.30887 0.03000
H 	H 	0.96715 0.39021 0.19118 0.03000
H 	H 	0.03286 0.60979 0.80882 0.03000
H 	H 	0.48039 0.89082 0.80863 0.03000
H 	H 	0.51961 0.10918 0.19137 0.03000
H 	H 	0.51533 0.10941 0.30862 0.03000
H 	H 	0.48467 0.89059 0.69138 0.03000
H 	H 	0.98507 0.33762 0.59956 0.03500
H 	H 	0.01493 0.66238 0.40044 0.03500
H 	H 	0.01180 0.66257 0.09952 0.03500
H 	H 	0.98820 0.33743 0.90048 0.03500
H 	H 	0.52565 0.16245 0.90061 0.03500
H 	H 	0.47435 0.83756 0.09939 0.03500
H 	H 	0.47727 0.83737 0.40062 0.03500
H 	H 	0.52273 0.16262 0.59938 0.03500
