data_crystal

_cell_length_a 7.24061
_cell_length_b 14.82881
_cell_length_c 22.54383
_cell_angle_alpha 89.99973
_cell_angle_beta  89.99802
_cell_angle_gamma 88.68616

_symmetry_space_group_name_	'P 1'
_symmetry_space_group_name_H-M	'P 1'

loop_
_symmetry_equiv_pos_as_xyz
  x,y,z

loop_
_atom_site_label
_atom_site_type_symbol
_atom_site_fract_x
_atom_site_fract_y
_atom_site_fract_z
_atom_site_charge
O 	O 	0.39081 0.84481 0.44734 -0.46900
O 	O 	0.10919 0.15519 0.94734 -0.46600
O 	O 	0.89081 0.65519 0.55266 -0.47400
O 	O 	0.60919 0.34481 0.05266 -0.47200
O 	O 	0.72055 0.65582 0.44042 -0.47400
O 	O 	0.77945 0.34418 0.94042 -0.47300
O 	O 	0.22055 0.84418 0.55958 -0.47800
O 	O 	0.27945 0.15582 0.05958 -0.47800
C 	C 	0.55407 0.62673 0.42604 0.33700
C 	C 	0.94593 0.37327 0.92604 0.33500
C 	C 	0.05034 0.87308 0.57392 0.34100
C 	C 	0.44965 0.12692 0.07392 0.34000
O 	O 	0.72053 0.84413 0.44042 -0.47700
O 	O 	0.77947 0.15587 0.94042 -0.47600
O 	O 	0.22053 0.65587 0.55958 -0.47100
O 	O 	0.27947 0.34413 0.05958 -0.47000
O 	O 	0.89083 0.84481 0.55266 -0.47300
O 	O 	0.60917 0.15519 0.05266 -0.47100
O 	O 	0.39083 0.65519 0.44734 -0.47100
O 	O 	0.10917 0.34481 0.94734 -0.46900
C 	C 	0.55051 0.87315 0.42621 0.33100
C 	C 	0.94950 0.12685 0.92621 0.32800
C 	C 	0.05396 0.62682 0.57398 0.33100
C 	C 	0.44604 0.37318 0.07398 0.32800
O 	O 	0.55731 0.74998 0.53682 -0.60900
O 	O 	0.94269 0.25002 0.03682 -0.60900
O 	O 	0.05731 0.75002 0.46318 -0.60700
O 	O 	0.44269 0.24998 0.96318 -0.60800
V 	V 	0.83216 0.74998 0.49317 1.80000
V 	V 	0.66784 0.25002 0.99317 1.80000
V 	V 	0.33216 0.75002 0.50683 1.80000
V 	V 	0.16784 0.24998 0.00683 1.80000
C 	C 	0.83444 0.59737 0.85545 -0.07100
C 	C 	0.66555 0.40262 0.35545 -0.06900
C 	C 	0.54270 0.89553 0.13612 -0.07000
C 	C 	0.95690 0.10444 0.63611 -0.06700
H 	H 	0.80583 0.54038 0.94210 0.03100
H 	H 	0.69415 0.45961 0.44211 0.03100
H 	H 	0.51531 0.95222 0.04910 0.03000
H 	H 	0.98429 0.04775 0.54910 0.03100
H 	H 	0.80607 0.71818 0.76949 0.04900
H 	H 	0.69402 0.28183 0.26948 0.04900
H 	H 	0.60489 0.77204 0.21874 0.04900
H 	H 	0.89451 0.22790 0.71874 0.04800
H 	H 	0.76589 0.65999 0.86846 0.05300
H 	H 	0.73408 0.34000 0.36847 0.05300
H 	H 	0.57621 0.82900 0.11885 0.05300
H 	H 	0.92321 0.17095 0.61885 0.05100
C 	C 	0.94395 0.44742 0.88230 -0.08900
C 	C 	0.55605 0.55257 0.38231 -0.08500
C 	C 	0.46651 0.05245 0.11699 -0.08700
C 	C 	0.03345 0.94756 0.61699 -0.08200
C 	C 	0.13326 0.46912 0.59785 -0.06300
C 	C 	0.36664 0.53086 0.09787 -0.06300
C 	C 	0.50098 0.03485 0.40789 -0.06200
C 	C 	0.99944 0.96518 0.90789 -0.06700
C 	C 	0.15442 0.39552 0.63687 0.14200
C 	C 	0.34540 0.60445 0.13690 0.14200
C 	C 	0.47355 0.11053 0.37099 0.14100
C 	C 	0.02705 0.88953 0.87099 0.14300
C 	C 	0.10691 0.40700 0.69651 -0.10400
C 	C 	0.39293 0.59297 0.19653 -0.10300
C 	C 	0.47006 0.09821 0.30947 -0.10200
C 	C 	0.03038 0.90183 0.80947 -0.09900
C 	C 	0.02891 0.48889 0.71818 0.03500
C 	C 	0.47103 0.51110 0.21819 0.03200
C 	C 	0.50230 0.01255 0.28320 0.03200
C 	C 	0.99780 0.98745 0.78320 0.02600
C 	C 	0.00053 0.56155 0.67710 0.02900
C 	C 	0.49946 0.43844 0.17711 0.02700
C 	C 	0.53802 0.93732 0.32159 0.02700
C 	C 	0.96190 0.06267 0.82159 0.02800
C 	C 	0.97828 0.50098 0.77931 -0.03300
C 	C 	0.52170 0.49901 0.27931 -0.02700
C 	C 	0.49981 0.99901 0.22012 -0.02700
C 	C 	0.00017 0.00099 0.72012 -0.02000
C 	C 	0.89449 0.58440 0.79690 0.04900
C 	C 	0.60551 0.41559 0.29690 0.04700
C 	C 	0.53851 0.91107 0.19747 0.04800
C 	C 	0.96121 0.08891 0.69747 0.04200
C 	C 	0.86866 0.65432 0.75595 -0.05200
C 	C 	0.63139 0.34568 0.25595 -0.05100
C 	C 	0.57476 0.83900 0.23599 -0.05200
C 	C 	0.92481 0.16096 0.73599 -0.04900
C 	C 	0.92234 0.64356 0.69722 -0.03600
C 	C 	0.57772 0.35645 0.19722 -0.03300
C 	C 	0.57309 0.85159 0.29699 -0.03200
C 	C 	0.92657 0.14838 0.79699 -0.03300
C 	C 	0.00455 0.43322 0.82365 0.01700
C 	C 	0.49543 0.56677 0.32365 0.01000
C 	C 	0.46258 0.06931 0.17841 0.01200
C 	C 	0.03752 0.93070 0.67840 0.00900
C 	C 	0.85759 0.52939 0.89752 0.02700
C 	C 	0.64240 0.47060 0.39752 0.02500
C 	C 	0.50765 0.96556 0.09631 0.02600
C 	C 	0.99206 0.03442 0.59631 0.02100
C 	C 	0.05531 0.55122 0.61694 -0.05900
C 	C 	0.44467 0.44877 0.11694 -0.05800
C 	C 	0.53514 0.94923 0.38404 -0.05900
C 	C 	0.96492 0.05077 0.88404 -0.05700
H 	H 	0.06604 0.36805 0.81389 0.03500
H 	H 	0.43395 0.63194 0.31389 0.03600
H 	H 	0.43396 0.13793 0.19190 0.03300
H 	H 	0.06629 0.86210 0.69189 0.03500
H 	H 	0.18058 0.46378 0.55242 0.05900
H 	H 	0.31931 0.53620 0.05244 0.05900
H 	H 	0.49251 0.04143 0.45561 0.05700
H 	H 	0.00809 0.95860 0.95561 0.06100
H 	H 	0.13234 0.34961 0.72484 0.07100
H 	H 	0.36741 0.65034 0.22487 0.07000
H 	H 	0.44233 0.15779 0.28335 0.06900
H 	H 	0.05830 0.84226 0.78336 0.06900
H 	H 	0.90028 0.70012 0.66751 0.05200
H 	H 	0.59982 0.29989 0.16750 0.05200
H 	H 	0.60104 0.79336 0.32483 0.04800
H 	H 	0.89850 0.20660 0.82483 0.04800
O 	O 	0.23564 0.31317 0.62055 -0.20200
C 	C 	0.18793 0.28770 0.56229 -0.02200
H 	H 	0.27654 0.32192 0.52946 0.03900
H 	H 	0.03881 0.30062 0.55253 0.03600
H 	H 	0.21461 0.21412 0.55749 0.04300
O 	O 	0.26408 0.68678 0.12059 -0.20300
C 	C 	0.31157 0.71225 0.06230 -0.02200
H 	H 	0.22290 0.67800 0.02951 0.03900
H 	H 	0.46068 0.69937 0.05250 0.03600
H 	H 	0.28481 0.78582 0.05751 0.04200
O 	O 	0.43334 0.19678 0.39254 -0.20300
C 	C 	0.53400 0.21605 0.44451 -0.02200
H 	H 	0.68219 0.19499 0.44063 0.03600
H 	H 	0.46935 0.18499 0.48394 0.03700
H 	H 	0.52876 0.28996 0.45185 0.04100
O 	O 	0.06772 0.80334 0.89257 -0.20100
C 	C 	0.96635 0.78384 0.94436 -0.02800
H 	H 	0.81808 0.80462 0.94022 0.03800
H 	H 	0.03002 0.81500 0.98390 0.04000
H 	H 	0.97208 0.70993 0.95168 0.04200
