data_crystal

_cell_length_a 7.24145
_cell_length_b 14.79739
_cell_length_c 22.56388
_cell_angle_alpha 89.99912
_cell_angle_beta  90.00777
_cell_angle_gamma 88.92123

_symmetry_space_group_name_	'P 1'
_symmetry_space_group_name_H-M	'P 1'

loop_
_symmetry_equiv_pos_as_xyz
  x,y,z

loop_
_atom_site_label
_atom_site_type_symbol
_atom_site_fract_x
_atom_site_fract_y
_atom_site_fract_z
_atom_site_charge
O 	O 	0.39081 0.84481 0.44734 -0.47300
O 	O 	0.10919 0.15519 0.94734 -0.47300
O 	O 	0.89081 0.65519 0.55266 -0.47400
O 	O 	0.60919 0.34481 0.05266 -0.47400
O 	O 	0.72055 0.65582 0.44042 -0.47500
O 	O 	0.77945 0.34418 0.94042 -0.47400
O 	O 	0.22055 0.84418 0.55958 -0.47700
O 	O 	0.27945 0.15582 0.05958 -0.47900
C 	C 	0.55365 0.62653 0.42618 0.33600
C 	C 	0.94633 0.37348 0.92619 0.33600
C 	C 	0.05078 0.87328 0.57381 0.33800
C 	C 	0.44924 0.12671 0.07380 0.33900
O 	O 	0.72053 0.84413 0.44042 -0.47900
O 	O 	0.77947 0.15587 0.94042 -0.47900
O 	O 	0.22053 0.65587 0.55958 -0.47400
O 	O 	0.27947 0.34413 0.05958 -0.47500
O 	O 	0.89083 0.84481 0.55266 -0.47100
O 	O 	0.60917 0.15519 0.05266 -0.47100
O 	O 	0.39083 0.65519 0.44734 -0.47200
O 	O 	0.10917 0.34481 0.94734 -0.47200
C 	C 	0.55080 0.87345 0.42632 0.34300
C 	C 	0.94918 0.12654 0.92632 0.34400
C 	C 	0.05371 0.62677 0.57397 0.34000
C 	C 	0.44631 0.37323 0.07397 0.34100
O 	O 	0.55731 0.74998 0.53682 -0.60900
O 	O 	0.94269 0.25002 0.03682 -0.60600
O 	O 	0.05731 0.75002 0.46318 -0.60900
O 	O 	0.44269 0.24998 0.96318 -0.60800
V 	V 	0.83216 0.74998 0.49317 1.80100
V 	V 	0.66784 0.25002 0.99317 1.80000
V 	V 	0.33216 0.75002 0.50683 1.80100
V 	V 	0.16784 0.24998 0.00683 1.80000
C 	C 	0.85462 0.60135 0.85742 -0.06600
C 	C 	0.64452 0.39854 0.35750 -0.06700
C 	C 	0.51961 0.89306 0.13607 -0.06700
C 	C 	0.98168 0.10701 0.63608 -0.06600
H 	H 	0.82261 0.72156 0.77102 0.04200
H 	H 	0.67612 0.27825 0.27113 0.04300
H 	H 	0.58190 0.76952 0.21880 0.04200
H 	H 	0.91988 0.23060 0.71880 0.04200
H 	H 	0.79643 0.66594 0.87139 0.04700
H 	H 	0.70229 0.33388 0.37151 0.04700
H 	H 	0.54084 0.82528 0.11882 0.04700
H 	H 	0.96110 0.17484 0.61884 0.04700
C 	C 	0.94682 0.44805 0.88273 -0.08000
C 	C 	0.55308 0.55196 0.38273 -0.08200
C 	C 	0.46385 0.05206 0.11686 -0.08300
C 	C 	0.03627 0.94793 0.61687 -0.08300
C 	C 	0.12848 0.46838 0.59811 0.01700
C 	C 	0.37221 0.53171 0.09803 0.01700
C 	C 	0.51063 0.03620 0.40721 0.01800
C 	C 	0.98845 0.96374 0.90721 0.01800
C 	C 	0.15412 0.39729 0.63765 -0.04600
C 	C 	0.34693 0.60288 0.13755 -0.04500
C 	C 	0.48118 0.10992 0.36999 -0.04500
C 	C 	0.01746 0.88999 0.86999 -0.04500
C 	C 	0.10883 0.40773 0.69727 -0.02600
C 	C 	0.39201 0.59242 0.19718 -0.02700
C 	C 	0.47479 0.09846 0.30874 -0.02600
C 	C 	0.02414 0.90146 0.80875 -0.02700
C 	C 	0.03158 0.48980 0.71890 -0.00900
C 	C 	0.46865 0.51026 0.21887 -0.00700
C 	C 	0.50141 0.01219 0.28273 -0.00600
C 	C 	0.99831 0.98778 0.78273 -0.00600
C 	C 	0.00382 0.56263 0.67774 0.05500
C 	C 	0.49607 0.43735 0.17775 0.05500
C 	C 	0.53369 0.93667 0.32136 0.05500
C 	C 	0.96649 0.06334 0.82136 0.05500
C 	C 	0.98284 0.50220 0.78005 -0.00800
C 	C 	0.51714 0.49782 0.28005 -0.01100
C 	C 	0.49575 0.99831 0.21982 -0.01200
C 	C 	0.00430 0.00168 0.71983 -0.01300
C 	C 	0.90712 0.58709 0.79824 0.03300
C 	C 	0.59230 0.41284 0.29829 0.03400
C 	C 	0.52363 0.90933 0.19734 0.03500
C 	C 	0.97721 0.09071 0.69735 0.03600
C 	C 	0.88176 0.65710 0.75725 -0.04300
C 	C 	0.61738 0.34278 0.25733 -0.04400
C 	C 	0.55720 0.83702 0.23597 -0.04400
C 	C 	0.94401 0.16306 0.73597 -0.04500
C 	C 	0.92995 0.64539 0.69812 -0.04800
C 	C 	0.56941 0.35451 0.19817 -0.04800
C 	C 	0.56121 0.85018 0.29690 -0.04600
C 	C 	0.93968 0.14989 0.79690 -0.04600
C 	C 	0.00319 0.43323 0.82381 -0.00100
C 	C 	0.49702 0.56684 0.32378 0.00100
C 	C 	0.46560 0.06934 0.17813 0.00400
C 	C 	0.03404 0.93061 0.67814 0.00400
C 	C 	0.87244 0.53222 0.89901 0.02000
C 	C 	0.62693 0.46771 0.39907 0.02100
C 	C 	0.49079 0.96384 0.09626 0.02200
C 	C 	0.01018 0.03620 0.59627 0.02000
C 	C 	0.05445 0.55140 0.61717 -0.09600
C 	C 	0.44568 0.44861 0.11716 -0.09600
C 	C 	0.53637 0.94938 0.38385 -0.09600
C 	C 	0.96349 0.05062 0.88384 -0.09500
H 	H 	0.05625 0.36664 0.81333 0.03700
H 	H 	0.44435 0.63349 0.31326 0.03700
H 	H 	0.44673 0.13878 0.19155 0.03400
H 	H 	0.05230 0.86113 0.69156 0.03400
H 	H 	0.16990 0.45911 0.55232 0.03400
H 	H 	0.33099 0.54101 0.05222 0.03400
H 	H 	0.51099 0.04675 0.45475 0.03300
H 	H 	0.98778 0.95317 0.95474 0.03300
H 	H 	0.13817 0.35052 0.72537 0.03700
H 	H 	0.36303 0.64971 0.22525 0.03800
H 	H 	0.44732 0.15846 0.28304 0.03700
H 	H 	0.05120 0.84141 0.78305 0.03700
H 	H 	0.21300 0.33376 0.62217 0.04100
H 	H 	0.28851 0.66648 0.12201 0.04100
H 	H 	0.46054 0.17665 0.38884 0.04000
H 	H 	0.03747 0.82321 0.88884 0.04000
H 	H 	0.90765 0.70188 0.66832 0.05500
H 	H 	0.59147 0.29798 0.16840 0.05500
H 	H 	0.58745 0.79182 0.32480 0.05100
H 	H 	0.91377 0.20828 0.82480 0.05100
H 	H 	0.82620 0.54410 0.94406 0.03300
H 	H 	0.67291 0.45578 0.44414 0.03300
H 	H 	0.49177 0.94995 0.04911 0.03200
H 	H 	0.00964 0.05012 0.54912 0.03200
