data_crystal

_cell_length_a 28.05018
_cell_length_b 7.20815
_cell_length_c 17.15448
_cell_angle_alpha 90.00344
_cell_angle_beta  101.08582
_cell_angle_gamma 89.99471

_symmetry_space_group_name_	'P 1'
_symmetry_space_group_name_H-M	'P 1'

loop_
_symmetry_equiv_pos_as_xyz
  x,y,z

loop_
_atom_site_label
_atom_site_type_symbol
_atom_site_fract_x
_atom_site_fract_y
_atom_site_fract_z
_atom_site_charge
O 	O 	0.00070 0.43651 0.85792 -0.47100
O 	O 	0.99930 0.56349 0.14208 -0.47000
O 	O 	0.99930 0.93651 0.64208 -0.47700
O 	O 	0.00070 0.06349 0.35792 -0.46500
O 	O 	0.93008 0.76638 0.72189 -0.48400
O 	O 	0.06992 0.23362 0.27811 -0.48100
O 	O 	0.06992 0.26638 0.77811 -0.48300
O 	O 	0.93008 0.73362 0.22189 -0.48100
C 	C 	0.91053 0.59771 0.70952 0.35100
C 	C 	0.08948 0.40244 0.29045 0.35100
C 	C 	0.08948 0.09755 0.79049 0.35700
C 	C 	0.91053 0.90230 0.20952 0.34200
O 	O 	0.99618 0.76623 0.86231 -0.47500
O 	O 	0.00382 0.23377 0.13769 -0.47000
O 	O 	0.00382 0.26623 0.63769 -0.47300
O 	O 	0.99618 0.73377 0.36231 -0.47100
O 	O 	0.06587 0.93646 0.78350 -0.48300
O 	O 	0.93413 0.06354 0.21650 -0.46800
O 	O 	0.93413 0.43646 0.71650 -0.47600
O 	O 	0.06587 0.56354 0.28350 -0.47800
C 	C 	0.99847 0.59651 0.89446 0.34900
C 	C 	0.00153 0.40349 0.10554 0.34600
C 	C 	0.00153 0.09650 0.60554 0.35300
C 	C 	0.99847 0.90350 0.39446 0.34200
O 	O 	0.02279 0.60302 0.72398 -0.60800
O 	O 	0.97721 0.39698 0.27602 -0.60700
O 	O 	0.97721 0.10302 0.77602 -0.60100
O 	O 	0.02279 0.89698 0.22398 -0.61200
V 	V 	0.99577 0.87790 0.75483 1.80000
V 	V 	0.00423 0.12210 0.24517 1.80200
V 	V 	0.00423 0.37790 0.74517 1.80100
V 	V 	0.99577 0.62210 0.25483 1.80100
C 	C 	0.00171 0.08259 0.51949 -0.08000
C 	C 	0.99829 0.91741 0.48051 -0.09700
C 	C 	0.99829 0.58259 0.98052 -0.09100
C 	C 	0.00171 0.41741 0.01948 -0.08600
H 	H 	0.00451 0.21112 0.48763 0.08900
H 	H 	0.99549 0.78888 0.51237 0.09100
H 	H 	0.99549 0.71113 0.01238 0.09000
H 	H 	0.00451 0.28887 0.98762 0.09000
C 	C 	0.68322 0.91323 0.03492 0.19000
C 	C 	0.31566 0.04534 0.96696 0.18700
C 	C 	0.31567 0.45398 0.46673 0.18900
C 	C 	0.68322 0.58693 0.53482 0.18900
O 	O 	0.71307 0.87609 0.98383 -0.19600
O 	O 	0.28502 0.05281 0.01871 -0.18900
O 	O 	0.28503 0.44582 0.51846 -0.19200
O 	O 	0.71308 0.62397 0.48373 -0.19400
N 	N 	0.70224 0.93974 0.11341 -0.17800
N 	N 	0.29753 0.05208 0.88739 -0.17900
N 	N 	0.29753 0.44796 0.38715 -0.18000
N 	N 	0.70224 0.56044 0.61332 -0.17900
C 	C 	0.67310 0.97780 0.16696 0.18700
C 	C 	0.32739 0.04458 0.83303 0.19300
C 	C 	0.32739 0.45632 0.33279 0.19500
C 	C 	0.67309 0.52243 0.66686 0.19500
C 	C 	0.77809 0.75790 0.14588 -0.09200
C 	C 	0.22279 0.23736 0.84704 -0.09600
C 	C 	0.21765 0.59740 0.34690 -0.09500
C 	C 	0.77815 0.74213 0.64512 -0.09500
C 	C 	0.82871 0.74861 0.16891 0.04600
C 	C 	0.17215 0.24884 0.82402 0.04600
C 	C 	0.16709 0.58652 0.32401 0.04600
C 	C 	0.82877 0.75137 0.66817 0.04500
C 	C 	0.83225 0.08368 0.17989 0.05400
C 	C 	0.16691 0.91347 0.82746 0.04100
C 	C 	0.17197 0.25087 0.32707 0.04600
C 	C 	0.83221 0.41656 0.68057 0.04600
C 	C 	0.78161 0.09242 0.15721 -0.08200
C 	C 	0.21745 0.90255 0.85045 -0.10200
C 	C 	0.22261 0.26230 0.35011 -0.09400
C 	C 	0.78157 0.40787 0.65788 -0.09400
C 	C 	0.75425 0.92977 0.13980 0.12500
C 	C 	0.24565 0.06419 0.86055 0.14500
C 	C 	0.24566 0.43560 0.36029 0.13900
C 	C 	0.75425 0.57041 0.63973 0.13800
C 	C 	0.60165 0.96520 0.06007 0.07300
C 	C 	0.39793 0.02227 0.94124 0.05500
C 	C 	0.39793 0.47784 0.44104 0.06400
C 	C 	0.60164 0.53502 0.55995 0.06400
C 	C 	0.63301 0.92619 0.00684 -0.09100
C 	C 	0.36583 0.03127 0.99530 -0.08000
C 	C 	0.36583 0.46828 0.49508 -0.08500
C 	C 	0.63301 0.57404 0.50674 -0.08500
C 	C 	0.61384 0.90040 0.92620 0.00500
C 	C 	0.38419 0.02444 0.07696 -0.00100
C 	C 	0.38418 0.47482 0.57675 0.00200
C 	C 	0.61386 0.59989 0.42610 0.00200
C 	C 	0.62145 0.99048 0.14220 -0.11900
C 	C 	0.37888 0.02676 0.85809 -0.09600
C 	C 	0.37889 0.47385 0.35788 -0.10500
C 	C 	0.62144 0.50972 0.64208 -0.10500
C 	C 	0.85658 0.91156 0.18589 -0.10800
C 	C 	0.14343 0.08687 0.81419 -0.09500
C 	C 	0.14343 0.41303 0.31403 -0.10000
C 	C 	0.85659 0.58851 0.68587 -0.10000
H 	H 	0.85224 0.21212 0.19260 0.04100
H 	H 	0.14630 0.78553 0.82052 0.04200
H 	H 	0.15526 0.11495 0.32010 0.04000
H 	H 	0.85217 0.28821 0.69388 0.04400
H 	H 	0.76364 0.22606 0.15236 0.06800
H 	H 	0.23473 0.76813 0.86105 0.06800
H 	H 	0.24392 0.13635 0.36070 0.07000
H 	H 	0.76357 0.27433 0.65358 0.07200
H 	H 	0.63716 0.86754 0.88458 0.04000
H 	H 	0.36016 0.02646 0.11941 0.04500
H 	H 	0.36014 0.47246 0.61919 0.04300
H 	H 	0.63718 0.63275 0.38449 0.04200
C 	C 	0.48114 0.98955 0.91765 -0.00600
C 	C 	0.51871 0.01048 0.08344 0.04600
C 	C 	0.51870 0.48958 0.58329 0.02400
C 	C 	0.48115 0.51085 0.41750 0.02400
C 	C 	0.46744 0.01210 0.05432 -0.00300
C 	C 	0.53177 0.96175 0.94757 0.02100
C 	C 	0.53177 0.53859 0.44744 0.00700
C 	C 	0.46743 0.48781 0.55415 0.00800
C 	C 	0.44895 0.00781 0.97103 -0.01800
C 	C 	0.55059 0.97891 0.03043 -0.06000
C 	C 	0.55058 0.52131 0.53030 -0.03900
C 	C 	0.44894 0.49233 0.47086 -0.03800
C 	C 	0.46202 0.00187 0.83560 -0.07100
C 	C 	0.53893 0.04217 0.16412 -0.10300
C 	C 	0.53892 0.45789 0.66397 -0.09400
C 	C 	0.46203 0.49875 0.33543 -0.09400
C 	C 	0.41191 0.01482 0.80417 0.06600
C 	C 	0.58910 0.02939 0.19532 0.09300
C 	C 	0.58909 0.47078 0.69518 0.07900
C 	C 	0.41192 0.48585 0.30398 0.07800
O 	O 	0.30682 0.05532 0.75549 -0.19700
O 	O 	0.69456 0.00286 0.24345 -0.18900
O 	O 	0.69454 0.49748 0.74337 -0.20000
O 	O 	0.30680 0.44656 0.25523 -0.20000
C 	C 	0.56438 0.91536 0.89726 -0.07100
C 	C 	0.43377 0.01481 0.10594 -0.05500
C 	C 	0.43375 0.48469 0.60574 -0.06200
C 	C 	0.56439 0.58501 0.39715 -0.06200
H 	H 	0.15559 0.38469 0.81441 0.03900
H 	H 	0.84596 0.61364 0.17272 0.03900
H 	H 	0.84605 0.88620 0.67141 0.03600
H 	H 	0.14663 0.71460 0.31445 0.04000
H 	H 	0.24425 0.36323 0.85506 0.06800
H 	H 	0.75736 0.63130 0.13238 0.06900
H 	H 	0.75745 0.86865 0.63105 0.06700
H 	H 	0.23507 0.73196 0.35491 0.06700
H 	H 	0.48653 0.00800 0.79502 0.04700
H 	H 	0.51557 0.08442 0.20331 0.05300
H 	H 	0.51557 0.41558 0.70315 0.05000
H 	H 	0.48654 0.49275 0.29486 0.04900
H 	H 	0.55285 0.88535 0.83496 0.04000
H 	H 	0.44432 0.00377 0.16955 0.04000
H 	H 	0.44428 0.49553 0.66936 0.04000
H 	H 	0.55288 0.61510 0.33486 0.03900
C 	C 	0.39410 0.01269 0.71372 -0.10500
C 	C 	0.43266 0.98475 0.66166 -0.02900
C 	C 	0.40939 0.97047 0.57372 -0.17300
H 	H 	0.38276 0.85526 0.56357 0.07300
H 	H 	0.39024 0.10069 0.55277 0.07900
H 	H 	0.43791 0.94444 0.53821 0.06500
H 	H 	0.45827 0.10395 0.66915 0.03500
H 	H 	0.45325 0.85472 0.67914 0.03000
H 	H 	0.36787 0.89634 0.69942 0.06600
H 	H 	0.37544 0.14631 0.69571 0.07000
C 	C 	0.60770 0.05633 0.28475 -0.12200
C 	C 	0.56956 0.08947 0.33706 -0.00000
C 	C 	0.59337 0.10336 0.42477 -0.15900
H 	H 	0.61124 0.97101 0.44616 0.06400
H 	H 	0.62120 0.21441 0.43394 0.07400
H 	H 	0.56537 0.13513 0.46061 0.06800
H 	H 	0.54997 0.22143 0.31948 0.02600
H 	H 	0.54308 0.97314 0.33004 0.01800
H 	H 	0.62798 0.92926 0.30792 0.06700
H 	H 	0.63262 0.17766 0.29310 0.07600
C 	C 	0.60767 0.44390 0.78462 -0.12900
C 	C 	0.56954 0.41074 0.83692 -0.00700
C 	C 	0.59334 0.39689 0.92464 -0.17100
H 	H 	0.62118 0.28584 0.93381 0.07800
H 	H 	0.61120 0.52925 0.94602 0.07300
H 	H 	0.56534 0.36515 0.96047 0.07000
H 	H 	0.54304 0.52706 0.82989 0.02600
H 	H 	0.54996 0.27876 0.81934 0.02800
H 	H 	0.63262 0.32261 0.79299 0.07800
H 	H 	0.62794 0.57101 0.80779 0.07500
C 	C 	0.39413 0.48784 0.21353 -0.12800
C 	C 	0.43273 0.51492 0.16146 -0.00800
C 	C 	0.40948 0.52873 0.07349 -0.17000
H 	H 	0.39024 0.39860 0.05271 0.07300
H 	H 	0.38295 0.64423 0.06317 0.07100
H 	H 	0.43804 0.55400 0.03797 0.06600
H 	H 	0.45338 0.64487 0.17879 0.02600
H 	H 	0.45827 0.39550 0.16913 0.02700
H 	H 	0.37536 0.35440 0.19557 0.07500
H 	H 	0.36800 0.60450 0.19914 0.07500
