data_crystal

_cell_length_a 38.35750
_cell_length_b 26.53640
_cell_length_c 25.58250
_cell_angle_alpha 89.07100
_cell_angle_beta  100.71000
_cell_angle_gamma 125.01900

_symmetry_space_group_name_	'P 1'
_symmetry_space_group_name_H-M	'P 1'

loop_
_symmetry_equiv_pos_as_xyz
  x,y,z

loop_
_atom_site_label
_atom_site_type_symbol
_atom_site_fract_x
_atom_site_fract_y
_atom_site_fract_z
_atom_site_charge
Ca	Ca	0.22090 0.11375 0.12663 1.50700
Cd	Cd	0.65421 0.57957 0.18458 1.30500
Cd	Cd	0.30111 0.19473 0.36702 1.16400
C 	C 	0.67925 0.13139 0.11163 -0.12600
C 	C 	0.25328 0.28485 0.11681 0.08700
C 	C 	0.40812 0.31539 0.39102 0.05400
C 	C 	0.63947 0.65269 0.21160 0.28600
C 	C 	0.22873 0.10023 0.22962 0.18500
C 	C 	0.24146 0.11705 0.27728 0.24800
O 	O 	0.27987 0.09338 0.13749 -0.17900
O 	O 	0.28000 0.59236 0.38703 -0.20200
O 	O 	0.62366 0.51714 0.12501 -0.27200
O 	O 	0.59817 0.50796 0.20076 -0.32200
O 	O 	0.65333 0.07311 0.11424 -0.41700
O 	O 	0.69385 0.16490 0.15684 -0.30800
O 	O 	0.26617 0.24278 0.11735 -0.12500
O 	O 	0.27270 0.25488 0.36781 -0.21500
O 	O 	0.37304 0.25876 0.11774 -0.15800
O 	O 	0.37255 0.25924 0.36798 -0.15600
O 	O 	0.60858 0.59442 0.44557 -0.36200
O 	O 	0.67846 0.66634 0.21743 -0.34300
O 	O 	0.24409 0.14575 0.20293 -0.54400
O 	O 	0.68712 0.54943 0.21537 -0.43900
O 	O 	0.21055 0.08920 0.30270 -0.54600
O 	O 	0.28021 0.16854 0.29449 -0.50600
C 	C 	0.27272 0.54171 0.10861 0.04500
C 	C 	0.58823 0.48454 0.15136 0.15000
C 	C 	0.43373 0.55548 0.17704 0.03400
C 	C 	0.41219 0.58069 0.18746 -0.04300
C 	C 	0.38793 0.55809 0.22603 -0.06000
C 	C 	0.38076 0.50599 0.24914 0.07500
N 	N 	0.35074 0.47911 0.28245 -0.08500
N 	N 	0.31092 0.44926 0.26306 -0.08800
C 	C 	0.29472 0.43796 0.20737 0.08800
C 	C 	0.29129 0.38825 0.18072 -0.07600
C 	C 	0.27172 0.36441 0.12776 0.01000
C 	C 	0.26096 0.41208 0.10212 -0.04500
C 	C 	0.27322 0.47716 0.12894 0.01100
C 	C 	0.28867 0.48137 0.18279 -0.08000
C 	C 	0.39460 0.47312 0.22979 -0.06100
C 	C 	0.42034 0.49710 0.19248 -0.04400
C 	C 	0.48086 0.59983 0.18644 -0.10400
C 	C 	0.50092 0.15451 0.15415 -0.06700
C 	C 	0.54934 0.20331 0.18098 -0.06300
C 	C 	0.59787 0.25092 0.17789 -0.09400
C 	C 	0.62312 0.22346 0.17380 -0.00600
C 	C 	0.63151 0.69828 0.22365 -0.21700
H 	H 	0.42154 0.12508 0.17560 0.03800
H 	H 	0.37478 0.58136 0.23796 0.04500
H 	H 	0.30143 0.36350 0.20462 0.05900
H 	H 	0.24173 0.39777 0.06168 0.04700
H 	H 	0.29769 0.52142 0.20710 0.05600
H 	H 	0.38618 0.42991 0.24405 0.04500
H 	H 	0.43649 0.47645 0.18435 0.03600
H 	H 	0.49537 0.57459 0.18288 0.04600
H 	H 	0.48947 0.12082 0.22764 0.05100
H 	H 	0.48303 0.17547 0.14800 0.04500
H 	H 	0.49508 0.63014 0.11794 0.04600
H 	H 	0.55404 0.16886 0.19399 0.04300
H 	H 	0.54529 0.22901 0.20923 0.04700
H 	H 	0.60285 0.28189 0.14785 0.05300
H 	H 	0.61497 0.28159 0.21594 0.04600
H 	H 	0.60160 0.18503 0.14446 0.03400
H 	H 	0.65385 0.25519 0.16077 0.03300
H 	H 	0.60309 0.67227 0.24015 0.08200
H 	H 	0.65823 0.23532 0.25416 0.08300
C 	C 	0.54931 0.23066 0.31093 0.03200
C 	C 	0.50580 0.20801 0.30291 -0.04800
C 	C 	0.49274 0.24470 0.28726 -0.05900
C 	C 	0.52110 0.29951 0.26810 0.08000
N 	N 	0.50248 0.32130 0.23095 -0.08400
N 	N 	0.48269 0.34132 0.24448 -0.09300
C 	C 	0.48765 0.35845 0.29824 0.09400
C 	C 	0.52947 0.40542 0.32563 -0.08500
C 	C 	0.53793 0.43075 0.37645 0.01600
C 	C 	0.49841 0.40477 0.14881 -0.04400
C 	C 	0.45366 0.34995 0.37221 0.02100
C 	C 	0.45167 0.32864 0.32174 -0.08800
C 	C 	0.56556 0.32690 0.28003 -0.06400
C 	C 	0.58004 0.29334 0.30399 -0.04700
C 	C 	0.56246 0.18825 0.30776 -0.12100
C 	C 	0.53620 0.11862 0.31763 -0.05200
C 	C 	0.54074 0.57635 0.28439 -0.07200
C 	C 	0.57825 0.57309 0.30698 -0.06300
C 	C 	0.62077 0.63548 0.32822 -0.06800
C 	C 	0.66437 0.15028 0.31998 0.01900
H 	H 	0.48025 0.16021 0.30109 0.03700
H 	H 	0.45868 0.22518 0.28101 0.04800
H 	H 	0.55609 0.42338 0.30567 0.07700
H 	H 	0.50182 0.42768 0.18568 0.05800
H 	H 	0.42136 0.28909 0.29914 0.05600
H 	H 	0.58834 0.37147 0.26807 0.05800
H 	H 	0.61434 0.31282 0.30946 0.03400
H 	H 	0.59751 0.21784 0.31376 0.04700
H 	H 	0.55528 0.17972 0.26792 0.05600
H 	H 	0.50105 0.59814 0.30348 0.03300
H 	H 	0.54065 0.11069 0.35969 0.04200
H 	H 	0.54314 0.58793 0.24388 0.04500
H 	H 	0.51076 0.52889 0.28151 0.04100
H 	H 	0.56863 0.54439 0.33990 0.05900
H 	H 	0.58168 0.54845 0.27663 0.07700
H 	H 	0.62421 0.17659 0.07023 0.04200
H 	H 	0.62359 0.64093 0.11933 0.06800
H 	H 	0.68868 0.19957 0.31646 0.03100
H 	H 	0.65486 0.61342 0.28699 0.03700
Ca	Ca	0.22056 0.11460 0.37592 1.50900
Cd	Cd	0.65429 0.57986 0.43387 1.30500
Cd	Cd	0.30164 0.19434 0.61650 1.16700
C 	C 	0.67996 0.13144 0.36340 -0.21200
C 	C 	0.25285 0.28522 0.36752 0.08700
C 	C 	0.40855 0.31486 0.64068 0.05500
C 	C 	0.63939 0.65239 0.46198 0.28700
C 	C 	0.22787 0.09660 0.47957 0.20200
C 	C 	0.24119 0.11341 0.52739 0.23900
O 	O 	0.27874 0.09273 0.38587 -0.17200
O 	O 	0.27984 0.59197 0.63621 -0.19800
O 	O 	0.62310 0.51662 0.37433 -0.26900
O 	O 	0.59832 0.50799 0.45035 -0.32000
O 	O 	0.65271 0.07290 0.36526 -0.37700
O 	O 	0.69516 0.16461 0.40888 -0.30700
O 	O 	0.26585 0.24339 0.36783 -0.12700
O 	O 	0.27313 0.25433 0.61718 -0.21800
O 	O 	0.37248 0.25929 0.36810 -0.15500
O 	O 	0.37293 0.25891 0.61747 -0.15500
O 	O 	0.60876 0.59490 0.69513 -0.36200
O 	O 	0.67842 0.66655 0.46669 -0.34200
O 	O 	0.24370 0.14226 0.45301 -0.55000
O 	O 	0.68823 0.55179 0.46622 -0.44700
O 	O 	0.21052 0.08553 0.55331 -0.54400
O 	O 	0.27981 0.16569 0.54406 -0.50200
C 	C 	0.27278 0.54194 0.35844 0.04500
C 	C 	0.58796 0.48446 0.40092 0.14900
C 	C 	0.43396 0.55579 0.42720 0.03400
C 	C 	0.41229 0.58078 0.43759 -0.04200
C 	C 	0.38831 0.55833 0.47641 -0.06000
C 	C 	0.38116 0.50619 0.49941 0.07500
N 	N 	0.35102 0.47917 0.53255 -0.08500
N 	N 	0.31125 0.44974 0.51300 -0.08800
C 	C 	0.29517 0.43871 0.45728 0.08800
C 	C 	0.29166 0.38903 0.43056 -0.07600
C 	C 	0.27156 0.36482 0.37782 0.00900
C 	C 	0.26065 0.41227 0.35215 -0.04500
C 	C 	0.27328 0.47754 0.37886 0.01100
C 	C 	0.28913 0.48212 0.43268 -0.08000
C 	C 	0.39497 0.47334 0.47992 -0.06100
C 	C 	0.42064 0.49739 0.44252 -0.04400
C 	C 	0.48108 0.60039 0.43703 -0.10400
C 	C 	0.50101 0.15471 0.40383 -0.06700
C 	C 	0.54939 0.20344 0.43088 -0.06400
C 	C 	0.59787 0.25112 0.42771 -0.09400
C 	C 	0.62317 0.22377 0.42362 -0.00700
C 	C 	0.63143 0.69797 0.47387 -0.21800
H 	H 	0.42133 0.12491 0.42522 0.03800
H 	H 	0.37525 0.58164 0.48854 0.04500
H 	H 	0.30196 0.36436 0.45428 0.05800
H 	H 	0.24100 0.39771 0.31192 0.04600
H 	H 	0.29851 0.52244 0.45693 0.05600
H 	H 	0.38658 0.43012 0.49411 0.04500
H 	H 	0.43679 0.47680 0.43424 0.03600
H 	H 	0.49578 0.57534 0.43392 0.04600
H 	H 	0.48934 0.12075 0.47720 0.05100
H 	H 	0.48309 0.17565 0.39771 0.04500
H 	H 	0.49500 0.63021 0.36835 0.04600
H 	H 	0.55413 0.16907 0.44406 0.04300
H 	H 	0.54532 0.22918 0.45905 0.04600
H 	H 	0.60274 0.28201 0.39763 0.05300
H 	H 	0.61498 0.28177 0.46576 0.04600
H 	H 	0.60160 0.18524 0.39445 0.03400
H 	H 	0.65385 0.25549 0.41047 0.03400
H 	H 	0.60291 0.67204 0.49019 0.08200
H 	H 	0.65823 0.23574 0.50393 0.08300
C 	C 	0.54934 0.23078 0.56112 0.03200
C 	C 	0.50586 0.20833 0.55311 -0.04800
C 	C 	0.49292 0.24508 0.53714 -0.05900
C 	C 	0.52142 0.29977 0.51791 0.08000
N 	N 	0.50302 0.32179 0.48072 -0.08400
N 	N 	0.48345 0.34219 0.49421 -0.09300
C 	C 	0.48829 0.35910 0.54798 0.09400
C 	C 	0.53010 0.40596 0.57561 -0.08500
C 	C 	0.53843 0.43079 0.62661 0.01600
C 	C 	0.49812 0.40512 0.39877 -0.04400
C 	C 	0.45412 0.34967 0.62197 0.02100
C 	C 	0.45226 0.32882 0.57138 -0.08800
C 	C 	0.56585 0.32706 0.53009 -0.06400
C 	C 	0.58018 0.29341 0.55418 -0.04700
C 	C 	0.56223 0.18814 0.55753 -0.12100
C 	C 	0.53577 0.11845 0.56727 -0.05300
C 	C 	0.54180 0.57674 0.53516 -0.07500
C 	C 	0.58009 0.57501 0.55782 -0.05500
C 	C 	0.62259 0.63804 0.57875 -0.08900
C 	C 	0.66228 0.14732 0.56799 -0.01100
H 	H 	0.48025 0.16058 0.55133 0.03700
H 	H 	0.45888 0.22567 0.53077 0.04800
H 	H 	0.55678 0.42418 0.55574 0.07700
H 	H 	0.50169 0.42823 0.43563 0.05800
H 	H 	0.42201 0.28932 0.54858 0.05600
H 	H 	0.58871 0.37161 0.51816 0.05700
H 	H 	0.61446 0.31274 0.55969 0.03400
H 	H 	0.59724 0.21748 0.56256 0.04600
H 	H 	0.55451 0.17947 0.51771 0.05600
H 	H 	0.50139 0.59782 0.55333 0.03300
H 	H 	0.54037 0.11048 0.60930 0.04200
H 	H 	0.54346 0.58733 0.49430 0.04600
H 	H 	0.51220 0.52903 0.53298 0.04200
H 	H 	0.57076 0.54654 0.59094 0.05800
H 	H 	0.58370 0.55032 0.52775 0.07600
H 	H 	0.62557 0.17827 0.31992 0.04700
H 	H 	0.62180 0.63781 0.36911 0.05900
H 	H 	0.68566 0.19571 0.56218 0.04000
H 	H 	0.65766 0.61775 0.53850 0.03200
Ca	Ca	0.22063 0.11291 0.62582 1.50900
Cd	Cd	0.65443 0.57975 0.68479 1.30500
Cd	Cd	0.30057 0.19480 0.86525 1.16500
C 	C 	0.67920 0.13083 0.61161 -0.14200
C 	C 	0.25314 0.28450 0.61678 0.08700
C 	C 	0.40769 0.31541 0.89004 0.05600
C 	C 	0.63959 0.65283 0.71167 0.28700
C 	C 	0.22801 0.10037 0.72986 0.19700
C 	C 	0.24085 0.11958 0.77703 0.24500
O 	O 	0.28000 0.09355 0.63662 -0.17600
O 	O 	0.27932 0.59185 0.88479 -0.20000
O 	O 	0.62385 0.51732 0.62519 -0.27100
O 	O 	0.59829 0.50812 0.70084 -0.32100
O 	O 	0.65290 0.07261 0.61430 -0.40900
O 	O 	0.69408 0.16452 0.65676 -0.31300
O 	O 	0.26593 0.24231 0.61716 -0.12600
O 	O 	0.27099 0.25069 0.88023 -0.18000
O 	O 	0.37301 0.25885 0.61735 -0.15700
O 	O 	0.37199 0.25944 0.86699 -0.15500
O 	O 	0.60859 0.59471 0.94574 -0.36200
O 	O 	0.67860 0.66652 0.71753 -0.34300
O 	O 	0.24366 0.14419 0.70155 -0.55500
O 	O 	0.68757 0.54976 0.71543 -0.44000
O 	O 	0.21071 0.09180 0.80324 -0.54900
O 	O 	0.27873 0.17245 0.79303 -0.51200
C 	C 	0.27270 0.54135 0.60806 0.04500
C 	C 	0.58839 0.48466 0.65146 0.15000
C 	C 	0.43380 0.55561 0.67691 0.03400
C 	C 	0.41221 0.58073 0.68737 -0.04300
C 	C 	0.38813 0.55821 0.72609 -0.06000
C 	C 	0.38108 0.50616 0.74915 0.07500
N 	N 	0.35099 0.47914 0.78225 -0.08600
N 	N 	0.31125 0.44929 0.76259 -0.09000
C 	C 	0.29507 0.43803 0.70693 0.08700
C 	C 	0.29148 0.38818 0.68035 -0.07600
C 	C 	0.27166 0.36410 0.62748 0.00900
C 	C 	0.26080 0.41165 0.60180 -0.04500
C 	C 	0.27319 0.47685 0.62851 0.01100
C 	C 	0.28885 0.48129 0.68236 -0.08000
C 	C 	0.39482 0.47324 0.72969 -0.06100
C 	C 	0.42046 0.49722 0.69228 -0.04400
C 	C 	0.48092 0.60005 0.68654 -0.10400
C 	C 	0.50089 0.15453 0.65392 -0.06700
C 	C 	0.54929 0.20328 0.68091 -0.06300
C 	C 	0.59777 0.25089 0.67768 -0.09400
C 	C 	0.62299 0.22346 0.67339 -0.00600
C 	C 	0.63158 0.69836 0.72371 -0.21700
H 	H 	0.42145 0.12503 0.67528 0.03800
H 	H 	0.37496 0.58140 0.73812 0.04500
H 	H 	0.30163 0.36345 0.70426 0.05700
H 	H 	0.24130 0.39713 0.56151 0.04600
H 	H 	0.29797 0.52142 0.70666 0.05500
H 	H 	0.38640 0.43001 0.74392 0.04400
H 	H 	0.43660 0.47659 0.68410 0.03600
H 	H 	0.49548 0.57488 0.68310 0.04600
H 	H 	0.48924 0.12044 0.72724 0.05100
H 	H 	0.48300 0.17550 0.64781 0.04500
H 	H 	0.49510 0.63028 0.61804 0.04600
H 	H 	0.55401 0.16892 0.69416 0.04300
H 	H 	0.54524 0.22912 0.70904 0.04600
H 	H 	0.60269 0.28193 0.64774 0.05300
H 	H 	0.61492 0.28149 0.71577 0.04600
H 	H 	0.60142 0.18492 0.64417 0.03400
H 	H 	0.65365 0.25519 0.66020 0.03200
H 	H 	0.60312 0.67230 0.74015 0.08200
H 	H 	0.65824 0.23555 0.75366 0.08300
C 	C 	0.54929 0.23078 0.81118 0.03200
C 	C 	0.50580 0.20825 0.80323 -0.04800
C 	C 	0.49280 0.24493 0.78730 -0.05900
C 	C 	0.52122 0.29960 0.76801 0.08000
N 	N 	0.50272 0.32143 0.73074 -0.08400
N 	N 	0.48296 0.34155 0.74413 -0.09300
C 	C 	0.48773 0.35855 0.79787 0.09400
C 	C 	0.52951 0.40547 0.82548 -0.08500
C 	C 	0.53777 0.43067 0.87629 0.01600
C 	C 	0.49849 0.40481 0.64875 -0.04400
C 	C 	0.45337 0.34979 0.87153 0.02000
C 	C 	0.45161 0.32856 0.82114 -0.08700
C 	C 	0.56567 0.32696 0.78009 -0.06400
C 	C 	0.58008 0.29340 0.80418 -0.04700
C 	C 	0.56220 0.18817 0.80759 -0.12100
C 	C 	0.53575 0.11849 0.81734 -0.05200
C 	C 	0.54076 0.57644 0.78453 -0.07400
C 	C 	0.57831 0.57330 0.80715 -0.05900
C 	C 	0.62090 0.63574 0.82820 -0.07600
C 	C 	0.66216 0.14708 0.81775 0.00600
H 	H 	0.48022 0.16048 0.80143 0.03700
H 	H 	0.45874 0.22544 0.78094 0.04800
H 	H 	0.55624 0.42350 0.80572 0.07700
H 	H 	0.50184 0.42771 0.68559 0.05800
H 	H 	0.42139 0.28903 0.79835 0.05500
H 	H 	0.58847 0.37149 0.76809 0.05800
H 	H 	0.61436 0.31277 0.80962 0.03400
H 	H 	0.59720 0.21749 0.81256 0.04600
H 	H 	0.55441 0.17948 0.76777 0.05600
H 	H 	0.50104 0.59821 0.80347 0.03300
H 	H 	0.54034 0.11049 0.85936 0.04200
H 	H 	0.54318 0.58800 0.74402 0.04500
H 	H 	0.51082 0.52895 0.78167 0.04200
H 	H 	0.56874 0.54475 0.84017 0.05800
H 	H 	0.58166 0.54850 0.77685 0.07600
H 	H 	0.62441 0.17663 0.56977 0.04300
H 	H 	0.62350 0.64079 0.61941 0.06700
H 	H 	0.68577 0.19548 0.81211 0.03500
H 	H 	0.65473 0.61321 0.78695 0.03300
Ca	Ca	0.22145 0.11599 0.87704 1.50900
Cd	Cd	0.65422 0.58004 0.93406 1.30500
Cd	Cd	0.30170 0.19444 0.11704 1.16600
C 	C 	0.67878 0.13013 0.86135 -0.17800
C 	C 	0.26877 0.29517 0.85449 0.06000
C 	C 	0.40852 0.31491 0.14089 0.05500
C 	C 	0.63939 0.65271 0.96200 0.28700
C 	C 	0.22778 0.09571 0.98054 0.21500
C 	C 	0.24131 0.11284 0.02833 0.23000
O 	O 	0.27954 0.09348 0.88573 -0.17800
O 	O 	0.27991 0.59271 0.13605 -0.19300
O 	O 	0.62307 0.51677 0.87457 -0.26800
O 	O 	0.59806 0.50804 0.95039 -0.31900
O 	O 	0.65201 0.07185 0.86405 -0.39200
O 	O 	0.69371 0.16398 0.90640 -0.31300
O 	O 	0.27104 0.24823 0.88179 -0.14700
O 	O 	0.27339 0.25480 0.11747 -0.21900
O 	O 	0.37210 0.25937 0.86683 -0.15800
O 	O 	0.37290 0.25884 0.11793 -0.15400
O 	O 	0.60859 0.59480 0.19494 -0.36300
O 	O 	0.67841 0.66685 0.96671 -0.34100
O 	O 	0.24403 0.14116 0.95398 -0.55200
O 	O 	0.68849 0.55234 0.96602 -0.44500
O 	O 	0.21081 0.08518 0.05442 -0.54200
O 	O 	0.27987 0.16538 0.04473 -0.49800
C 	C 	0.27302 0.54151 0.85697 0.04300
C 	C 	0.58780 0.48448 0.90099 0.14900
C 	C 	0.43314 0.55555 0.92780 0.03400
C 	C 	0.41086 0.57978 0.93757 -0.04200
C 	C 	0.38489 0.55501 0.97431 -0.06100
C 	C 	0.37702 0.50194 0.99610 0.07900
N 	N 	0.34769 0.47498 0.03037 -0.08700
N 	N 	0.30759 0.44405 0.01239 -0.09000
C 	C 	0.28981 0.43172 0.95703 0.09000
C 	C 	0.28445 0.38008 0.93073 -0.07800
C 	C 	0.27029 0.36158 0.87633 0.01600
C 	C 	0.26348 0.41290 0.85011 -0.04800
C 	C 	0.27276 0.47578 0.87780 0.01100
C 	C 	0.28534 0.47684 0.93229 -0.08000
C 	C 	0.39219 0.47057 0.97747 -0.06200
C 	C 	0.41958 0.49668 0.94205 -0.04300
C 	C 	0.48031 0.60057 0.93799 -0.10500
C 	C 	0.50077 0.15440 0.90403 -0.06700
C 	C 	0.54920 0.20316 0.93098 -0.06400
C 	C 	0.59768 0.25081 0.92771 -0.09300
C 	C 	0.62291 0.22341 0.92345 -0.00800
C 	C 	0.63140 0.69825 0.97389 -0.21400
H 	H 	0.42158 0.12525 0.92592 0.03800
H 	H 	0.37180 0.57814 0.98672 0.04700
H 	H 	0.29398 0.35457 0.95454 0.06500
H 	H 	0.24906 0.40262 0.80789 0.05000
H 	H 	0.29440 0.51657 0.95715 0.05700
H 	H 	0.38427 0.42756 0.99168 0.04700
H 	H 	0.43650 0.47700 0.93457 0.03600
H 	H 	0.49511 0.57554 0.93601 0.04600
H 	H 	0.48906 0.12039 0.97738 0.05200
H 	H 	0.48291 0.17541 0.89785 0.04500
H 	H 	0.49402 0.62838 0.86860 0.04500
H 	H 	0.55393 0.16880 0.94430 0.04400
H 	H 	0.54518 0.22909 0.95906 0.04700
H 	H 	0.60261 0.28184 0.89775 0.05300
H 	H 	0.61486 0.28145 0.96578 0.04600
H 	H 	0.60136 0.18487 0.89423 0.03400
H 	H 	0.65356 0.25512 0.91024 0.03300
H 	H 	0.60289 0.67234 0.99021 0.08300
H 	H 	0.65825 0.23560 0.00364 0.08000
C 	C 	0.54937 0.23095 0.06135 0.03200
C 	C 	0.50589 0.20846 0.05341 -0.04900
C 	C 	0.49290 0.24515 0.03736 -0.05900
C 	C 	0.52134 0.29977 0.01800 0.07700
N 	N 	0.50287 0.32169 0.98075 -0.08200
N 	N 	0.48328 0.34207 0.99420 -0.09100
C 	C 	0.48813 0.35904 0.04797 0.09200
C 	C 	0.52994 0.40589 0.07557 -0.08400
C 	C 	0.53830 0.43072 0.12657 0.01500
C 	C 	0.49777 0.40494 0.89829 -0.04400
C 	C 	0.45403 0.34965 0.12207 0.02100
C 	C 	0.45212 0.32879 0.07144 -0.08700
C 	C 	0.56578 0.32710 0.03012 -0.06300
C 	C 	0.58017 0.29354 0.05429 -0.04800
C 	C 	0.56222 0.18829 0.05763 -0.12100
C 	C 	0.53582 0.11861 0.06742 -0.05200
C 	C 	0.54183 0.57667 0.03503 -0.08000
C 	C 	0.58006 0.57494 0.05792 -0.05200
C 	C 	0.62259 0.63802 0.07866 -0.09100
C 	C 	0.66215 0.14761 0.06799 -0.02000
H 	H 	0.48030 0.16070 0.05167 0.03700
H 	H 	0.45886 0.22570 0.03104 0.04700
H 	H 	0.55662 0.42407 0.05569 0.07600
H 	H 	0.50111 0.42806 0.93498 0.05800
H 	H 	0.42185 0.28932 0.04866 0.05600
H 	H 	0.58860 0.37160 0.01809 0.05600
H 	H 	0.61445 0.31287 0.05970 0.03300
H 	H 	0.59719 0.21759 0.06210 0.04600
H 	H 	0.55413 0.17941 0.01783 0.05500
H 	H 	0.50133 0.59772 0.05305 0.03200
H 	H 	0.54051 0.11069 0.10944 0.04200
H 	H 	0.54369 0.58727 0.99420 0.04900
H 	H 	0.51221 0.52896 0.03279 0.04300
H 	H 	0.57069 0.54667 0.09115 0.05800
H 	H 	0.58363 0.55005 0.02799 0.07400
H 	H 	0.62454 0.17687 0.81961 0.04500
H 	H 	0.62199 0.63822 0.86912 0.06100
H 	H 	0.68538 0.19600 0.06209 0.04100
H 	H 	0.65746 0.61747 0.03830 0.03000
Ca	Ca	0.22074 0.61346 0.12703 1.50700
Cd	Cd	0.65442 0.08003 0.18373 1.30500
Cd	Cd	0.30156 0.69457 0.36724 1.16700
C 	C 	0.67978 0.63127 0.11344 -0.21900
C 	C 	0.25309 0.78465 0.11713 0.08800
C 	C 	0.40861 0.81547 0.39115 0.05500
C 	C 	0.63945 0.15249 0.21185 0.28700
C 	C 	0.22780 0.59842 0.23000 0.18600
C 	C 	0.24133 0.61418 0.27792 0.24700
O 	O 	0.27988 0.59332 0.13806 -0.18500
O 	O 	0.27843 0.09084 0.38638 -0.20200
O 	O 	0.62339 0.01673 0.12424 -0.26600
O 	O 	0.59845 0.00806 0.20016 -0.31600
O 	O 	0.65244 0.57270 0.11517 -0.37400
O 	O 	0.69495 0.66435 0.15897 -0.30700
O 	O 	0.26590 0.74250 0.11756 -0.12600
O 	O 	0.27232 0.75340 0.36821 -0.21800
O 	O 	0.37264 0.75923 0.11736 -0.15300
O 	O 	0.37283 0.75966 0.36787 -0.15500
O 	O 	0.60884 0.09495 0.44503 -0.36200
O 	O 	0.67850 0.16670 0.21661 -0.34200
O 	O 	0.24331 0.64439 0.20375 -0.54300
O 	O 	0.68839 0.05204 0.21600 -0.44600
O 	O 	0.21090 0.58506 0.30411 -0.54300
O 	O 	0.27983 0.66647 0.29477 -0.50400
C 	C 	0.27266 0.04153 0.10855 0.04900
C 	C 	0.58821 0.98447 0.15078 0.14200
C 	C 	0.43393 0.05572 0.17736 0.03800
C 	C 	0.41227 0.08075 0.18771 -0.04300
C 	C 	0.38805 0.05810 0.22631 -0.06100
C 	C 	0.38089 0.00595 0.24934 0.08200
N 	N 	0.35081 0.97895 0.28260 -0.08800
N 	N 	0.31099 0.94911 0.26317 -0.08800
C 	C 	0.29484 0.93790 0.20743 0.08800
C 	C 	0.29145 0.88825 0.18074 -0.07600
C 	C 	0.27165 0.86425 0.12785 0.00900
C 	C 	0.26082 0.91183 0.10220 -0.04500
C 	C 	0.27319 0.97700 0.12894 0.00900
C 	C 	0.28879 0.98132 0.18281 -0.08400
C 	C 	0.39478 0.97317 0.22992 -0.06600
C 	C 	0.42055 0.99730 0.19264 -0.04700
C 	C 	0.48105 0.10023 0.18702 -0.10600
C 	C 	0.50087 0.65432 0.15381 -0.06800
C 	C 	0.54923 0.70314 0.18093 -0.06300
C 	C 	0.59770 0.75085 0.17770 -0.09400
C 	C 	0.62298 0.72348 0.17362 -0.00700
C 	C 	0.63141 0.19797 0.22379 -0.21800
H 	H 	0.42153 0.62505 0.17537 0.03800
H 	H 	0.37492 0.08136 0.23832 0.04600
H 	H 	0.30172 0.86357 0.20455 0.05800
H 	H 	0.24137 0.89734 0.06188 0.04600
H 	H 	0.29796 0.02147 0.20712 0.05900
H 	H 	0.38638 0.92994 0.24408 0.04600
H 	H 	0.43672 0.97671 0.18441 0.03500
H 	H 	0.49570 0.07514 0.18379 0.04700
H 	H 	0.48928 0.62019 0.22714 0.05000
H 	H 	0.48296 0.67526 0.14768 0.04500
H 	H 	0.49496 0.13014 0.11834 0.04600
H 	H 	0.55400 0.66882 0.19431 0.04300
H 	H 	0.54513 0.72898 0.20898 0.04600
H 	H 	0.60258 0.78173 0.14761 0.05300
H 	H 	0.61484 0.78156 0.21572 0.04600
H 	H 	0.60128 0.68485 0.14455 0.03400
H 	H 	0.65358 0.75510 0.16027 0.03300
H 	H 	0.60286 0.17190 0.24003 0.08200
H 	H 	0.65832 0.73581 0.25386 0.08300
C 	C 	0.54936 0.73096 0.31128 0.03200
C 	C 	0.50588 0.70847 0.30336 -0.04800
C 	C 	0.49290 0.74520 0.28746 -0.05900
C 	C 	0.52133 0.79987 0.26816 0.07900
N 	N 	0.50286 0.82177 0.23094 -0.08400
N 	N 	0.48333 0.84224 0.24441 -0.09300
C 	C 	0.48824 0.85934 0.29816 0.09400
C 	C 	0.53010 0.90610 0.32574 -0.08500
C 	C 	0.53849 0.93103 0.37672 0.01700
C 	C 	0.49841 0.90466 0.14859 -0.04500
C 	C 	0.45413 0.85024 0.37218 0.02100
C 	C 	0.45218 0.82937 0.32154 -0.08800
C 	C 	0.56577 0.82715 0.28016 -0.06400
C 	C 	0.58016 0.79356 0.30424 -0.04700
C 	C 	0.56225 0.68833 0.30766 -0.12100
C 	C 	0.53578 0.61862 0.31736 -0.05300
C 	C 	0.54181 0.07671 0.28524 -0.07500
C 	C 	0.58010 0.07495 0.30779 -0.05500
C 	C 	0.62265 0.13798 0.32856 -0.08800
C 	C 	0.66190 0.64728 0.31818 -0.02600
H 	H 	0.48030 0.66071 0.30162 0.03700
H 	H 	0.45886 0.72577 0.28117 0.04800
H 	H 	0.55677 0.92415 0.30586 0.07600
H 	H 	0.50190 0.92755 0.18552 0.05700
H 	H 	0.42187 0.79004 0.29871 0.05600
H 	H 	0.58858 0.87163 0.26810 0.05700
H 	H 	0.61443 0.81288 0.30960 0.03300
H 	H 	0.59725 0.71766 0.31239 0.04600
H 	H 	0.55433 0.67960 0.26785 0.05600
H 	H 	0.50145 0.09783 0.30344 0.03300
H 	H 	0.54049 0.61066 0.35937 0.04200
H 	H 	0.54338 0.08725 0.24435 0.04600
H 	H 	0.51221 0.02901 0.28313 0.04300
H 	H 	0.57085 0.04658 0.34098 0.05900
H 	H 	0.58361 0.05017 0.27767 0.07600
H 	H 	0.62557 0.67838 0.07014 0.04700
H 	H 	0.62219 0.13844 0.11901 0.06000
H 	H 	0.68508 0.69569 0.31227 0.04400
H 	H 	0.65758 0.11740 0.28825 0.03200
Ca	Ca	0.22029 0.61194 0.37688 1.50800
Cd	Cd	0.65454 0.07989 0.43468 1.30500
Cd	Cd	0.30157 0.69421 0.61651 1.16700
C 	C 	0.67911 0.63129 0.36182 -0.11300
C 	C 	0.25209 0.78317 0.36812 0.08900
C 	C 	0.40836 0.81485 0.64070 0.05500
C 	C 	0.63963 0.15290 0.46150 0.28700
C 	C 	0.22716 0.59684 0.47973 0.18900
C 	C 	0.24097 0.61308 0.52756 0.24600
O 	O 	0.28027 0.59404 0.38716 -0.17700
O 	O 	0.27974 0.09188 0.63648 -0.20200
O 	O 	0.62392 0.01730 0.37517 -0.26800
O 	O 	0.59847 0.00827 0.45089 -0.31700
O 	O 	0.65340 0.57303 0.36446 -0.42200
O 	O 	0.69367 0.66481 0.40701 -0.30700
O 	O 	0.26519 0.74136 0.36835 -0.12600
O 	O 	0.27312 0.75425 0.61724 -0.21800
O 	O 	0.37290 0.75960 0.36775 -0.15700
O 	O 	0.37276 0.75892 0.61744 -0.15500
O 	O 	0.60864 0.09471 0.69477 -0.36300
O 	O 	0.67867 0.16674 0.46724 -0.34200
O 	O 	0.24260 0.64263 0.45338 -0.54700
O 	O 	0.68767 0.05010 0.46573 -0.43900
O 	O 	0.21062 0.58472 0.55386 -0.54600
O 	O 	0.27959 0.66542 0.54407 -0.50400
C 	C 	0.27043 0.03961 0.35782 0.04700
C 	C 	0.58849 0.98477 0.40151 0.14300
C 	C 	0.43394 0.05579 0.42674 0.03800
C 	C 	0.41245 0.08087 0.43772 -0.04200
C 	C 	0.38926 0.05895 0.47735 -0.06200
C 	C 	0.38228 0.00684 0.50022 0.08200
N 	N 	0.35174 0.97920 0.53273 -0.08800
N 	N 	0.31207 0.94924 0.51245 -0.08800
C 	C 	0.29645 0.93859 0.45657 0.08800
C 	C 	0.29258 0.88858 0.42986 -0.07500
C 	C 	0.27047 0.86270 0.37790 0.00900
C 	C 	0.25809 0.90896 0.35275 -0.04500
C 	C 	0.27184 0.97551 0.37853 0.00900
C 	C 	0.28986 0.98162 0.43193 -0.08300
C 	C 	0.39585 0.97389 0.48028 -0.06600
C 	C 	0.42080 0.99749 0.44214 -0.04700
C 	C 	0.48105 0.10034 0.43654 -0.10600
C 	C 	0.50098 0.65462 0.40414 -0.06800
C 	C 	0.54941 0.70340 0.43097 -0.06300
C 	C 	0.59794 0.75095 0.42786 -0.09400
C 	C 	0.62315 0.72342 0.42383 -0.00600
C 	C 	0.63154 0.19833 0.47354 -0.21700
H 	H 	0.42150 0.62507 0.42541 0.03800
H 	H 	0.37631 0.08226 0.48987 0.04600
H 	H 	0.30368 0.86456 0.45328 0.05700
H 	H 	0.23588 0.89179 0.31411 0.04400
H 	H 	0.29980 0.02236 0.45597 0.06000
H 	H 	0.38754 0.93068 0.49441 0.04600
H 	H 	0.43670 0.97673 0.43329 0.03500
H 	H 	0.49572 0.07530 0.43322 0.04700
H 	H 	0.48940 0.62100 0.47761 0.05100
H 	H 	0.48310 0.67560 0.39796 0.04500
H 	H 	0.49513 0.13039 0.36801 0.04600
H 	H 	0.55409 0.66895 0.44404 0.04300
H 	H 	0.54538 0.72916 0.45919 0.04700
H 	H 	0.60291 0.78186 0.39777 0.05300
H 	H 	0.61504 0.78166 0.46589 0.04600
H 	H 	0.60160 0.68496 0.39452 0.03400
H 	H 	0.65387 0.75509 0.41078 0.03300
H 	H 	0.60298 0.17206 0.48978 0.08200
H 	H 	0.65829 0.73533 0.50419 0.08300
C 	C 	0.54931 0.73069 0.56102 0.03300
C 	C 	0.50580 0.70807 0.55300 -0.04800
C 	C 	0.49277 0.74475 0.53715 -0.05900
C 	C 	0.52118 0.79949 0.51793 0.07900
N 	N 	0.50267 0.82135 0.48070 -0.08400
N 	N 	0.48306 0.84169 0.49416 -0.09300
C 	C 	0.48795 0.85875 0.54791 0.09400
C 	C 	0.52974 0.90567 0.57545 -0.08600
C 	C 	0.53810 0.93063 0.62640 0.01600
C 	C 	0.49860 0.90524 0.39893 -0.04500
C 	C 	0.45387 0.84963 0.62192 0.02100
C 	C 	0.45196 0.82863 0.57136 -0.08800
C 	C 	0.56562 0.82691 0.53003 -0.06400
C 	C 	0.58006 0.79336 0.55408 -0.04700
C 	C 	0.56241 0.68825 0.55773 -0.12100
C 	C 	0.53614 0.61860 0.56753 -0.05200
C 	C 	0.54093 0.07629 0.53450 -0.07300
C 	C 	0.57861 0.07340 0.55716 -0.06000
C 	C 	0.62122 0.13598 0.57785 -0.07400
C 	C 	0.66436 0.65051 0.57025 0.02000
H 	H 	0.48025 0.66029 0.55121 0.03700
H 	H 	0.45871 0.72527 0.53086 0.04800
H 	H 	0.55640 0.92381 0.55553 0.07600
H 	H 	0.50210 0.92819 0.43583 0.05700
H 	H 	0.42171 0.78909 0.54863 0.05600
H 	H 	0.58842 0.87148 0.51808 0.05700
H 	H 	0.61436 0.81282 0.55957 0.03400
H 	H 	0.59743 0.71782 0.56342 0.04700
H 	H 	0.55507 0.67967 0.51788 0.05600
H 	H 	0.50104 0.09792 0.55326 0.03300
H 	H 	0.54055 0.61061 0.60957 0.04200
H 	H 	0.54322 0.08764 0.49392 0.04500
H 	H 	0.51106 0.02876 0.53180 0.04300
H 	H 	0.56919 0.04510 0.59036 0.06000
H 	H 	0.58191 0.04847 0.52694 0.07700
H 	H 	0.62393 0.67615 0.32036 0.04100
H 	H 	0.62364 0.14090 0.36925 0.06700
H 	H 	0.68865 0.69984 0.56682 0.03100
H 	H 	0.65509 0.11344 0.53673 0.03400
Ca	Ca	0.22090 0.61277 0.62600 1.50900
Cd	Cd	0.65427 0.07985 0.68370 1.30500
Cd	Cd	0.30030 0.69504 0.86496 1.16500
C 	C 	0.67989 0.63149 0.61361 -0.21600
C 	C 	0.25317 0.78446 0.61688 0.08800
C 	C 	0.40763 0.81525 0.89035 0.05600
C 	C 	0.63950 0.15269 0.71115 0.28700
C 	C 	0.22858 0.60120 0.72968 0.19700
C 	C 	0.24072 0.62071 0.77665 0.24500
O 	O 	0.28002 0.59327 0.63695 -0.17900
O 	O 	0.27938 0.09216 0.88487 -0.19700
O 	O 	0.62319 0.01662 0.62445 -0.26700
O 	O 	0.59833 0.00802 0.70041 -0.31600
O 	O 	0.65257 0.57294 0.61538 -0.37500
O 	O 	0.69514 0.66454 0.65916 -0.30800
O 	O 	0.26590 0.74217 0.61723 -0.12500
O 	O 	0.27068 0.75112 0.88028 -0.18300
O 	O 	0.37283 0.75886 0.61732 -0.15700
O 	O 	0.37161 0.76009 0.86625 -0.15500
O 	O 	0.60841 0.09468 0.94468 -0.36300
O 	O 	0.67853 0.16658 0.71653 -0.34300
O 	O 	0.24435 0.64486 0.70127 -0.55700
O 	O 	0.68781 0.05100 0.71547 -0.44400
O 	O 	0.21024 0.59302 0.80231 -0.55100
O 	O 	0.27861 0.67333 0.79296 -0.51400
C 	C 	0.27270 0.04148 0.60803 0.04800
C 	C 	0.58805 0.98438 0.65102 0.14300
C 	C 	0.43379 0.05561 0.67693 0.03800
C 	C 	0.41220 0.08072 0.68740 -0.04200
C 	C 	0.38818 0.05826 0.72618 -0.06200
C 	C 	0.38113 0.00623 0.74926 0.08200
N 	N 	0.35103 0.97921 0.78234 -0.08900
N 	N 	0.31128 0.94940 0.76265 -0.09000
C 	C 	0.29514 0.93815 0.70697 0.08700
C 	C 	0.29155 0.88828 0.68042 -0.07600
C 	C 	0.27172 0.86414 0.62755 0.00900
C 	C 	0.26094 0.91180 0.60183 -0.04500
C 	C 	0.27328 0.97700 0.62851 0.00900
C 	C 	0.28890 0.98141 0.68238 -0.08400
C 	C 	0.39487 0.97329 0.72979 -0.06600
C 	C 	0.42046 0.99723 0.69233 -0.04700
C 	C 	0.48091 0.10007 0.68657 -0.10600
C 	C 	0.50093 0.65451 0.65389 -0.06800
C 	C 	0.54930 0.70325 0.68100 -0.06300
C 	C 	0.59777 0.75097 0.67778 -0.09400
C 	C 	0.62306 0.72362 0.67370 -0.00700
C 	C 	0.63147 0.19812 0.72332 -0.21700
H 	H 	0.42148 0.62506 0.67528 0.03800
H 	H 	0.37503 0.08148 0.73823 0.04600
H 	H 	0.30176 0.86362 0.70436 0.05700
H 	H 	0.24159 0.89737 0.56147 0.04600
H 	H 	0.29797 0.02151 0.70671 0.05800
H 	H 	0.38645 0.93007 0.74403 0.04500
H 	H 	0.43660 0.97659 0.68412 0.03500
H 	H 	0.49550 0.07492 0.68314 0.04700
H 	H 	0.48925 0.62043 0.72723 0.05000
H 	H 	0.48304 0.67547 0.64775 0.04500
H 	H 	0.49501 0.13031 0.61807 0.04600
H 	H 	0.55405 0.66890 0.69432 0.04300
H 	H 	0.54520 0.72905 0.70910 0.04600
H 	H 	0.60263 0.78183 0.64768 0.05300
H 	H 	0.61490 0.78168 0.71579 0.04600
H 	H 	0.60139 0.68499 0.64464 0.03400
H 	H 	0.65366 0.75524 0.66036 0.03400
H 	H 	0.60295 0.17196 0.73967 0.08200
H 	H 	0.65835 0.73588 0.75396 0.08300
C 	C 	0.54933 0.73090 0.81134 0.03300
C 	C 	0.50586 0.70832 0.80357 -0.04800
C 	C 	0.49277 0.74489 0.78744 -0.05900
C 	C 	0.52114 0.79958 0.76810 0.07900
N 	N 	0.50257 0.82132 0.73082 -0.08400
N 	N 	0.48275 0.84137 0.74419 -0.09300
C 	C 	0.48753 0.85846 0.79790 0.09400
C 	C 	0.52930 0.90536 0.82550 -0.08600
C 	C 	0.53761 0.93043 0.87638 0.01600
C 	C 	0.49825 0.90474 0.64866 -0.04500
C 	C 	0.45322 0.84981 0.87162 0.02000
C 	C 	0.45141 0.82863 0.82118 -0.08800
C 	C 	0.56560 0.82697 0.78009 -0.06400
C 	C 	0.58007 0.79349 0.80423 -0.04700
C 	C 	0.56224 0.68833 0.80773 -0.12100
C 	C 	0.53574 0.61866 0.81746 -0.05300
C 	C 	0.54088 0.07635 0.78453 -0.07400
C 	C 	0.57856 0.07351 0.80716 -0.05700
C 	C 	0.62122 0.13612 0.82768 -0.08200
C 	C 	0.66194 0.64718 0.81815 -0.00600
H 	H 	0.48037 0.66058 0.80208 0.03700
H 	H 	0.45871 0.72534 0.78108 0.04800
H 	H 	0.55601 0.92340 0.80570 0.07600
H 	H 	0.50169 0.92763 0.68555 0.05700
H 	H 	0.42120 0.78905 0.79845 0.05600
H 	H 	0.58838 0.87146 0.76801 0.05700
H 	H 	0.61435 0.81286 0.80961 0.03400
H 	H 	0.59725 0.71766 0.81259 0.04600
H 	H 	0.55441 0.67962 0.76791 0.05600
H 	H 	0.50101 0.09795 0.80337 0.03300
H 	H 	0.54039 0.61067 0.85947 0.04200
H 	H 	0.54314 0.08770 0.74394 0.04500
H 	H 	0.51102 0.02882 0.78185 0.04300
H 	H 	0.56919 0.04532 0.84043 0.05900
H 	H 	0.58179 0.04844 0.77695 0.07600
H 	H 	0.62552 0.67836 0.57020 0.04700
H 	H 	0.62249 0.13899 0.61867 0.06100
H 	H 	0.68533 0.69559 0.81231 0.03800
H 	H 	0.65489 0.11328 0.78639 0.03200
Ca	Ca	0.22129 0.61595 0.87638 1.51000
Cd	Cd	0.65388 0.07957 0.93358 1.30500
Cd	Cd	0.30161 0.69455 0.11689 1.16500
C 	C 	0.67900 0.63096 0.86181 -0.15300
C 	C 	0.26828 0.79527 0.85410 0.06000
C 	C 	0.40858 0.81464 0.14096 0.05500
C 	C 	0.63934 0.15258 0.96116 0.28700
C 	C 	0.22741 0.59450 0.98053 0.22400
C 	C 	0.24086 0.61252 0.02824 0.22500
O 	O 	0.27956 0.59358 0.88486 -0.17300
O 	O 	0.27969 0.09205 0.13670 -0.19800
O 	O 	0.62277 0.01641 0.87444 -0.26700
O 	O 	0.59795 0.00775 0.95046 -0.31600
O 	O 	0.65281 0.57268 0.86460 -0.40500
O 	O 	0.69360 0.66475 0.90684 -0.30500
O 	O 	0.27095 0.74863 0.88146 -0.14300
O 	O 	0.27303 0.75443 0.11752 -0.21900
O 	O 	0.37168 0.76004 0.86614 -0.15700
O 	O 	0.37287 0.75907 0.11697 -0.15900
O 	O 	0.60868 0.09452 0.19537 -0.36200
O 	O 	0.67832 0.16632 0.96653 -0.34300
O 	O 	0.24411 0.63937 0.95340 -0.55700
O 	O 	0.68751 0.05084 0.96484 -0.44300
O 	O 	0.21043 0.58531 0.05440 -0.54000
O 	O 	0.27947 0.66506 0.04447 -0.49500
C 	C 	0.27301 0.04190 0.85701 0.04600
C 	C 	0.58761 0.98413 0.90104 0.14300
C 	C 	0.43358 0.05551 0.92728 0.03800
C 	C 	0.41176 0.08044 0.93727 -0.04200
C 	C 	0.38622 0.05654 0.97449 -0.06200
C 	C 	0.37825 0.00365 0.99669 0.08500
N 	N 	0.34855 0.97684 0.03047 -0.09000
N 	N 	0.30854 0.94606 0.01189 -0.09000
C 	C 	0.29124 0.93386 0.95639 0.09100
C 	C 	0.28611 0.88240 0.93001 -0.07800
C 	C 	0.27053 0.86246 0.87581 0.01600
C 	C 	0.26317 0.91331 0.84966 -0.04800
C 	C 	0.27290 0.97644 0.87740 0.01000
C 	C 	0.28644 0.97856 0.93165 -0.08400
C 	C 	0.39308 0.97173 0.97825 -0.06700
C 	C 	0.42002 0.99690 0.94227 -0.04600
C 	C 	0.48073 0.09997 0.93675 -0.10600
C 	C 	0.50025 0.65377 0.90406 -0.06700
C 	C 	0.54880 0.70245 0.93063 -0.06300
C 	C 	0.59740 0.75050 0.92786 -0.09400
C 	C 	0.62292 0.72345 0.92383 -0.00700
C 	C 	0.63142 0.19812 0.97341 -0.21400
H 	H 	0.42073 0.62477 0.92661 0.03800
H 	H 	0.37333 0.08005 0.98674 0.04700
H 	H 	0.29674 0.85802 0.95363 0.06400
H 	H 	0.24826 0.90279 0.80754 0.04900
H 	H 	0.29596 0.01884 0.95615 0.06000
H 	H 	0.38507 0.92883 0.99283 0.04700
H 	H 	0.43666 0.97676 0.93484 0.03500
H 	H 	0.49528 0.07476 0.93333 0.04700
H 	H 	0.48845 0.62212 0.97812 0.05200
H 	H 	0.48249 0.67493 0.89743 0.04500
H 	H 	0.49491 0.13015 0.86821 0.04600
H 	H 	0.55350 0.66785 0.94352 0.04300
H 	H 	0.54475 0.72817 0.95889 0.04700
H 	H 	0.60240 0.78161 0.89794 0.05300
H 	H 	0.61433 0.78104 0.96598 0.04700
H 	H 	0.60151 0.68493 0.89457 0.03400
H 	H 	0.65359 0.75531 0.91073 0.03300
H 	H 	0.60300 0.17208 0.98996 0.08200
H 	H 	0.65829 0.73567 0.00416 0.08000
C 	C 	0.54933 0.73066 0.06093 0.03200
C 	C 	0.50586 0.70818 0.05312 -0.04900
C 	C 	0.49286 0.74489 0.03726 -0.05900
C 	C 	0.52125 0.79954 0.01792 0.07700
N 	N 	0.50272 0.82133 0.98062 -0.08200
N 	N 	0.48309 0.84166 0.99402 -0.09100
C 	C 	0.48799 0.85881 0.04775 0.09200
C 	C 	0.52981 0.90573 0.07524 -0.08500
C 	C 	0.53823 0.93066 0.12622 0.01600
C 	C 	0.49769 0.90471 0.89850 -0.04500
C 	C 	0.45401 0.84953 0.12192 0.02100
C 	C 	0.45203 0.82862 0.07128 -0.08700
C 	C 	0.56569 0.82690 0.02996 -0.06300
C 	C 	0.58011 0.79330 0.05397 -0.04800
C 	C 	0.56233 0.68811 0.05746 -0.12100
C 	C 	0.53608 0.61850 0.06730 -0.05100
C 	C 	0.54087 0.07639 0.03454 -0.07700
C 	C 	0.57852 0.07341 0.05710 -0.06100
C 	C 	0.62105 0.13592 0.07810 -0.07100
C 	C 	0.66428 0.65030 0.07008 0.02300
H 	H 	0.48026 0.66043 0.05137 0.03600
H 	H 	0.45881 0.72543 0.03102 0.04700
H 	H 	0.55644 0.92387 0.05529 0.07500
H 	H 	0.50120 0.92759 0.93545 0.05800
H 	H 	0.42178 0.78905 0.04859 0.05600
H 	H 	0.58850 0.87146 0.01802 0.05600
H 	H 	0.61440 0.81272 0.05945 0.03300
H 	H 	0.59734 0.71763 0.06307 0.04600
H 	H 	0.55486 0.67940 0.01758 0.05500
H 	H 	0.50108 0.09805 0.05352 0.03200
H 	H 	0.54048 0.61055 0.10935 0.04200
H 	H 	0.54313 0.08777 0.99396 0.04800
H 	H 	0.51098 0.02888 0.03184 0.04300
H 	H 	0.56903 0.04486 0.09014 0.05900
H 	H 	0.58192 0.04870 0.02678 0.07600
H 	H 	0.62418 0.67650 0.82032 0.04400
H 	H 	0.62257 0.13928 0.86856 0.06400
H 	H 	0.68862 0.69959 0.06664 0.03000
H 	H 	0.65509 0.11386 0.03671 0.03600
Ca	Ca	0.72102 0.11144 0.12620 1.50800
Cd	Cd	0.15411 0.57994 0.18367 1.30500
Cd	Cd	0.80068 0.19526 0.36500 1.16400
C 	C 	0.17902 0.13073 0.11157 -0.16500
C 	C 	0.75319 0.28406 0.11677 0.08700
C 	C 	0.90759 0.31555 0.38974 0.05500
C 	C 	0.13943 0.65273 0.21122 0.28700
C 	C 	0.72813 0.10025 0.23007 0.19600
C 	C 	0.74109 0.11995 0.27712 0.24500
O 	O 	0.78111 0.09357 0.13698 -0.17900
O 	O 	0.78144 0.59230 0.38675 -0.20300
O 	O 	0.12317 0.51675 0.12454 -0.27000
O 	O 	0.09824 0.50805 0.20046 -0.32000
O 	O 	0.15259 0.07248 0.11438 -0.39900
O 	O 	0.19378 0.16462 0.15655 -0.31000
O 	O 	0.76589 0.24156 0.11733 -0.12400
O 	O 	0.77180 0.25204 0.38025 -0.18500
O 	O 	0.87306 0.25898 0.11755 -0.15400
O 	O 	0.87202 0.25942 0.36694 -0.15500
O 	O 	0.10821 0.59451 0.44491 -0.36300
O 	O 	0.17845 0.66655 0.21667 -0.34400
O 	O 	0.74378 0.14369 0.20143 -0.56000
O 	O 	0.18775 0.55132 0.21514 -0.44400
O 	O 	0.71106 0.09249 0.30344 -0.54800
O 	O 	0.77893 0.17295 0.29282 -0.51200
C 	C 	0.77122 0.54129 0.10716 0.04300
C 	C 	0.08803 0.48443 0.15108 0.14900
C 	C 	0.93392 0.55560 0.17676 0.03600
C 	C 	0.91241 0.58087 0.18720 -0.04300
C 	C 	0.88844 0.55853 0.22596 -0.06000
C 	C 	0.88143 0.50657 0.24906 0.07500
N 	N 	0.85113 0.47951 0.28168 -0.08600
N 	N 	0.81154 0.45011 0.26149 -0.09000
C 	C 	0.79558 0.43902 0.20583 0.08700
C 	C 	0.79173 0.38882 0.17948 -0.07500
C 	C 	0.77132 0.36392 0.12689 0.00900
C 	C 	0.75996 0.41128 0.10130 -0.04500
C 	C 	0.77242 0.47694 0.12765 0.01100
C 	C 	0.78891 0.48197 0.18135 -0.08000
C 	C 	0.89499 0.47343 0.22965 -0.06100
C 	C 	0.92054 0.49721 0.19219 -0.04400
C 	C 	0.98102 0.59992 0.18646 -0.10900
C 	C 	1.00000 0.15343 0.15396 -0.07000
C 	C 	0.04859 0.20205 0.18055 -0.06000
C 	C 	0.09718 0.25021 0.17778 -0.09500
C 	C 	0.12275 0.22330 0.17357 -0.00600
C 	C 	0.13147 0.69819 0.22345 -0.21800
H 	H 	0.92058 0.12469 0.17659 0.03800
H 	H 	0.87519 0.58168 0.23794 0.04600
H 	H 	0.80202 0.36433 0.20354 0.05700
H 	H 	0.74001 0.39623 0.06127 0.04500
H 	H 	0.79808 0.52213 0.20567 0.05600
H 	H 	0.88642 0.43014 0.24391 0.04400
H 	H 	0.93663 0.47648 0.18408 0.03500
H 	H 	0.99555 0.57472 0.18277 0.04600
H 	H 	0.98812 0.12171 0.22799 0.04900
H 	H 	0.98230 0.17470 0.14736 0.04500
H 	H 	0.99518 0.63054 0.11815 0.04200
H 	H 	0.05331 0.16749 0.19358 0.04300
H 	H 	0.04456 0.22791 0.20872 0.04600
H 	H 	0.10219 0.28150 0.14804 0.05400
H 	H 	0.11412 0.28062 0.21597 0.04600
H 	H 	0.10134 0.18471 0.14439 0.03400
H 	H 	0.15335 0.25522 0.16032 0.03200
H 	H 	0.10300 0.67204 0.23989 0.08200
H 	H 	0.15820 0.23574 0.25383 0.08300
C 	C 	0.04933 0.23070 0.31106 0.02700
C 	C 	0.00588 0.20830 0.30333 -0.03500
C 	C 	0.99289 0.24500 0.28746 -0.07100
C 	C 	0.02127 0.29960 0.26805 0.08700
N 	N 	0.00270 0.32128 0.23070 -0.08300
N 	N 	0.98281 0.34124 0.24399 -0.09400
C 	C 	0.98755 0.35833 0.29768 0.09100
C 	C 	0.02929 0.40526 0.32530 -0.08200
C 	C 	0.03747 0.43047 0.37606 0.01800
C 	C 	0.99837 0.40475 0.14861 -0.05000
C 	C 	0.95321 0.34979 0.37131 0.02100
C 	C 	0.95144 0.32844 0.32096 -0.08700
C 	C 	0.06571 0.32690 0.28001 -0.06800
C 	C 	0.08012 0.29329 0.30402 -0.04300
C 	C 	0.06216 0.18799 0.30731 -0.11800
C 	C 	0.03576 0.11837 0.31715 -0.05300
C 	C 	0.04072 0.57648 0.28467 -0.07300
C 	C 	0.07833 0.57343 0.30713 -0.05900
C 	C 	0.12100 0.63591 0.32783 -0.07600
C 	C 	0.16237 0.14733 0.31835 0.01200
H 	H 	0.98025 0.16056 0.30161 0.03200
H 	H 	0.95883 0.22552 0.28118 0.05000
H 	H 	0.05605 0.42325 0.30558 0.07600
H 	H 	0.00177 0.42764 0.18549 0.06100
H 	H 	0.92122 0.28890 0.29821 0.05500
H 	H 	0.08850 0.37142 0.26799 0.05900
H 	H 	0.11440 0.31264 0.30942 0.03300
H 	H 	0.09715 0.21730 0.31220 0.04600
H 	H 	0.05424 0.17911 0.26746 0.05600
H 	H 	0.00102 0.59826 0.30360 0.03400
H 	H 	0.04037 0.11048 0.35920 0.04300
H 	H 	0.04302 0.58796 0.24414 0.04500
H 	H 	0.01081 0.52898 0.28192 0.04200
H 	H 	0.06891 0.54509 0.34030 0.05900
H 	H 	0.08156 0.54848 0.27681 0.07600
H 	H 	0.12446 0.17680 0.07004 0.04400
H 	H 	0.12246 0.63918 0.11861 0.06300
H 	H 	0.18586 0.19566 0.31250 0.03400
H 	H 	0.15470 0.61313 0.28647 0.03400
Ca	Ca	0.72170 0.11749 0.37706 1.51000
Cd	Cd	0.15364 0.57928 0.43360 1.30500
Cd	Cd	0.80218 0.19455 0.61735 1.16700
C 	C 	0.17905 0.13013 0.36194 -0.19300
C 	C 	0.77033 0.29693 0.35432 0.05900
C 	C 	0.90896 0.31486 0.64120 0.05500
C 	C 	0.13916 0.65245 0.46125 0.28700
C 	C 	0.72798 0.09644 0.48054 0.20600
C 	C 	0.74157 0.11275 0.52847 0.23700
O 	O 	0.77922 0.09371 0.38569 -0.17800
O 	O 	0.77900 0.59257 0.63545 -0.19900
O 	O 	0.12253 0.51626 0.37423 -0.27000
O 	O 	0.09760 0.50766 0.45017 -0.32000
O 	O 	0.15212 0.07179 0.36441 -0.38700
O 	O 	0.19447 0.16383 0.40723 -0.31400
O 	O 	0.77201 0.24953 0.38142 -0.14500
O 	O 	0.77322 0.25420 0.61761 -0.21800
O 	O 	0.87214 0.25932 0.36675 -0.15800
O 	O 	0.87328 0.25925 0.61736 -0.15800
O 	O 	0.10879 0.59455 0.69522 -0.36300
O 	O 	0.17812 0.66616 0.46641 -0.34300
O 	O 	0.74412 0.14235 0.45438 -0.54600
O 	O 	0.18696 0.55002 0.46519 -0.44300
O 	O 	0.71110 0.08430 0.55463 -0.54300
O 	O 	0.78008 0.16530 0.54508 -0.49900
C 	C 	0.77666 0.54363 0.35855 0.04600
C 	C 	0.08736 0.48410 0.40077 0.14900
C 	C 	0.93268 0.55537 0.42801 0.03400
C 	C 	0.90998 0.57916 0.43702 -0.04300
C 	C 	0.88319 0.55368 0.47285 -0.06000
C 	C 	0.87536 0.50071 0.49486 0.07600
N 	N 	0.84647 0.47415 0.52980 -0.08500
N 	N 	0.80626 0.44301 0.51259 -0.08900
C 	C 	0.78801 0.43025 0.45745 0.08800
C 	C 	0.78317 0.37911 0.43099 -0.07800
C 	C 	0.77165 0.36293 0.37630 0.01600
C 	C 	0.76665 0.41561 0.35022 -0.04900
C 	C 	0.77464 0.47698 0.37849 0.01100
C 	C 	0.78416 0.47579 0.43292 -0.08000
C 	C 	0.89101 0.46974 0.47681 -0.06100
C 	C 	0.91911 0.49646 0.44223 -0.04400
C 	C 	0.97985 0.60078 0.43848 -0.10400
C 	C 	0.00100 0.15456 0.40401 -0.05500
C 	C 	0.04935 0.20336 0.43110 -0.06800
C 	C 	0.09778 0.25085 0.42772 -0.09200
C 	C 	0.12295 0.22332 0.42341 -0.00700
C 	C 	0.13130 0.69811 0.47345 -0.21800
H 	H 	0.92149 0.12503 0.42493 0.03800
H 	H 	0.86972 0.57650 0.48467 0.04500
H 	H 	0.79150 0.35258 0.45507 0.06500
H 	H 	0.75452 0.40763 0.30764 0.05200
H 	H 	0.79231 0.51488 0.45789 0.05500
H 	H 	0.88311 0.42676 0.49109 0.04600
H 	H 	0.93646 0.47720 0.43553 0.03500
H 	H 	0.99470 0.57580 0.43713 0.04500
H 	H 	0.98921 0.12038 0.47730 0.05100
H 	H 	0.98308 0.17547 0.39782 0.04100
H 	H 	0.99349 0.62752 0.36876 0.04500
H 	H 	0.05411 0.16909 0.44451 0.04400
H 	H 	0.04529 0.22926 0.45915 0.04800
H 	H 	0.10264 0.28181 0.39770 0.05300
H 	H 	0.11500 0.28151 0.46576 0.04500
H 	H 	0.10135 0.18485 0.39415 0.03400
H 	H 	0.15361 0.25506 0.41024 0.03200
H 	H 	0.10284 0.67223 0.48989 0.08200
H 	H 	0.15817 0.23534 0.50363 0.08300
C 	C 	0.04933 0.23094 0.56146 0.02700
C 	C 	0.00586 0.20840 0.55368 -0.03500
C 	C 	0.99278 0.24493 0.53733 -0.07200
C 	C 	0.02119 0.29957 0.51793 0.08700
N 	N 	0.00273 0.32148 0.48063 -0.08300
N 	N 	0.98332 0.34216 0.49406 -0.09400
C 	C 	0.98822 0.35924 0.54782 0.09200
C 	C 	0.03004 0.40604 0.57540 -0.08200
C 	C 	0.03847 0.43066 0.62654 0.01800
C 	C 	0.99755 0.40491 0.39805 -0.05000
C 	C 	0.95430 0.34974 0.62210 0.02200
C 	C 	0.95227 0.32900 0.57135 -0.08700
C 	C 	0.06564 0.32698 0.53009 -0.06800
C 	C 	0.08009 0.29351 0.55433 -0.04300
C 	C 	0.06221 0.18833 0.55779 -0.11800
C 	C 	0.03574 0.11871 0.56761 -0.05400
C 	C 	0.04108 0.57609 0.53450 -0.07300
C 	C 	0.07871 0.57331 0.55750 -0.05900
C 	C 	0.12124 0.63601 0.57805 -0.07600
C 	C 	0.16202 0.14735 0.56796 -0.00600
H 	H 	0.98038 0.16067 0.55227 0.03200
H 	H 	0.95872 0.22544 0.53098 0.05100
H 	H 	0.05666 0.42428 0.55542 0.07700
H 	H 	0.00092 0.42810 0.43472 0.06100
H 	H 	0.92199 0.28952 0.54860 0.05700
H 	H 	0.08844 0.37147 0.51802 0.05900
H 	H 	0.11437 0.31287 0.55972 0.03300
H 	H 	0.09718 0.21763 0.56241 0.04600
H 	H 	0.05423 0.17952 0.51799 0.05600
H 	H 	0.00104 0.59771 0.55293 0.03400
H 	H 	0.04036 0.11074 0.60962 0.04300
H 	H 	0.04362 0.58730 0.49391 0.04600
H 	H 	0.01121 0.52856 0.53181 0.04300
H 	H 	0.06928 0.54516 0.59080 0.05900
H 	H 	0.08212 0.54828 0.52748 0.07600
H 	H 	0.12459 0.17683 0.31989 0.04500
H 	H 	0.12229 0.63884 0.36870 0.06200
H 	H 	0.18542 0.19571 0.56209 0.03800
H 	H 	0.15512 0.61360 0.53665 0.03400
Ca	Ca	0.72094 0.11209 0.62702 1.50700
Cd	Cd	0.15453 0.57997 0.68387 1.30600
Cd	Cd	0.80152 0.19458 0.86725 1.16600
C 	C 	0.17895 0.13089 0.61161 -0.15600
C 	C 	0.75324 0.28444 0.61708 0.08800
C 	C 	0.90849 0.31476 0.89099 0.05500
C 	C 	0.13958 0.65246 0.71191 0.28800
C 	C 	0.72789 0.09807 0.73022 0.18800
C 	C 	0.74132 0.11457 0.77803 0.24700
O 	O 	0.78114 0.09418 0.63696 -0.17300
O 	O 	0.77999 0.59203 0.88742 -0.20300
O 	O 	0.12346 0.51674 0.62454 -0.27000
O 	O 	0.09880 0.50766 0.70076 -0.32000
O 	O 	0.15263 0.07259 0.61428 -0.40400
O 	O 	0.19361 0.16459 0.65671 -0.30600
O 	O 	0.76592 0.24193 0.61774 -0.12400
O 	O 	0.77328 0.25493 0.86779 -0.21900
O 	O 	0.87315 0.25935 0.61760 -0.15400
O 	O 	0.87285 0.25875 0.86779 -0.15700
O 	O 	0.10868 0.59455 0.94518 -0.36100
O 	O 	0.17862 0.66652 0.71708 -0.34300
O 	O 	0.74347 0.14361 0.70354 -0.54600
O 	O 	0.18912 0.55252 0.71502 -0.44800
O 	O 	0.71082 0.08646 0.80410 -0.54200
O 	O 	0.77996 0.16661 0.79475 -0.50400
C 	C 	0.77150 0.54163 0.60719 0.04300
C 	C 	0.08841 0.48429 0.65123 0.14900
C 	C 	0.93382 0.55554 0.67704 0.03600
C 	C 	0.91221 0.58070 0.68727 -0.04400
C 	C 	0.88791 0.55815 0.72578 -0.06000
C 	C 	0.88067 0.50604 0.74891 0.07500
N 	N 	0.85045 0.47916 0.78196 -0.08500
N 	N 	0.81071 0.44982 0.76230 -0.08800
C 	C 	0.79471 0.43862 0.70654 0.08800
C 	C 	0.79134 0.38881 0.68011 -0.07500
C 	C 	0.77144 0.36428 0.62734 0.01000
C 	C 	0.76031 0.41177 0.60158 -0.04500
C 	C 	0.77263 0.47730 0.62789 0.01100
C 	C 	0.78852 0.48193 0.68177 -0.07900
C 	C 	0.89458 0.47317 0.72974 -0.06100
C 	C 	0.92042 0.49717 0.69251 -0.04500
C 	C 	0.98095 0.59996 0.68666 -0.10900
C 	C 	0.00003 0.15350 0.65411 -0.05400
C 	C 	0.04864 0.20214 0.68056 -0.06700
C 	C 	0.09727 0.25030 0.67792 -0.09200
C 	C 	0.12286 0.22337 0.67389 -0.00700
C 	C 	0.13151 0.69797 0.72373 -0.21800
H 	H 	0.92051 0.12466 0.67668 0.03800
H 	H 	0.87475 0.58143 0.73765 0.04600
H 	H 	0.80169 0.36435 0.70414 0.05800
H 	H 	0.74067 0.39695 0.56138 0.04700
H 	H 	0.79764 0.52209 0.70602 0.05700
H 	H 	0.88614 0.42997 0.74402 0.04500
H 	H 	0.93659 0.47653 0.68447 0.03600
H 	H 	0.99556 0.57481 0.68341 0.04600
H 	H 	0.98818 0.12226 0.72829 0.05100
H 	H 	0.98233 0.17477 0.64741 0.04000
H 	H 	0.99516 0.63009 0.61812 0.04200
H 	H 	0.05332 0.16749 0.69339 0.04400
H 	H 	0.04461 0.22791 0.70882 0.04800
H 	H 	0.10231 0.28149 0.64806 0.05300
H 	H 	0.11417 0.28079 0.71607 0.04500
H 	H 	0.10152 0.18492 0.64456 0.03400
H 	H 	0.15355 0.25532 0.66084 0.03200
H 	H 	0.10302 0.67196 0.74011 0.08200
H 	H 	0.15823 0.23549 0.75417 0.08300
C 	C 	0.04932 0.23061 0.81088 0.02700
C 	C 	0.00585 0.20814 0.80312 -0.03500
C 	C 	0.99283 0.24483 0.78731 -0.07200
C 	C 	0.02121 0.29948 0.76796 0.08700
N 	N 	0.00263 0.32120 0.73068 -0.08300
N 	N 	0.98296 0.34145 0.74410 -0.09400
C 	C 	0.98791 0.35866 0.79782 0.09100
C 	C 	0.02975 0.40565 0.82526 -0.08200
C 	C 	0.03818 0.43054 0.87627 0.01900
C 	C 	0.99869 0.40465 0.64892 -0.05000
C 	C 	0.95395 0.34943 0.87201 0.02200
C 	C 	0.95195 0.32849 0.82137 -0.08700
C 	C 	0.06565 0.32685 0.77994 -0.06800
C 	C 	0.08008 0.29325 0.80390 -0.04300
C 	C 	0.06231 0.18805 0.80737 -0.11800
C 	C 	0.03610 0.11845 0.81727 -0.05300
C 	C 	0.04158 0.57675 0.78490 -0.07500
C 	C 	0.07973 0.57473 0.80762 -0.05600
C 	C 	0.12224 0.63768 0.82881 -0.08500
C 	C 	0.16431 0.15042 0.82023 0.01000
H 	H 	0.98024 0.16038 0.80140 0.03200
H 	H 	0.95879 0.22537 0.78108 0.05100
H 	H 	0.05636 0.42384 0.80527 0.07600
H 	H 	0.00221 0.42730 0.68600 0.06100
H 	H 	0.92166 0.28899 0.79867 0.05600
H 	H 	0.08844 0.37142 0.76800 0.05800
H 	H 	0.11437 0.31268 0.80935 0.03300
H 	H 	0.09731 0.21759 0.81284 0.04600
H 	H 	0.05473 0.17923 0.76750 0.05600
H 	H 	0.00122 0.59782 0.80332 0.03400
H 	H 	0.04053 0.11056 0.85933 0.04300
H 	H 	0.04341 0.58764 0.74413 0.04600
H 	H 	0.01188 0.52907 0.78244 0.04300
H 	H 	0.07025 0.54611 0.84063 0.05900
H 	H 	0.08334 0.55012 0.77747 0.07600
H 	H 	0.12429 0.17674 0.57007 0.04400
H 	H 	0.12256 0.63903 0.61898 0.06200
H 	H 	0.18846 0.19967 0.81662 0.03400
H 	H 	0.15711 0.61746 0.78864 0.03500
Ca	Ca	0.72053 0.11395 0.87681 1.50800
Cd	Cd	0.15428 0.57920 0.93475 1.30500
Cd	Cd	0.80214 0.19422 0.11674 1.16700
C 	C 	0.17991 0.13153 0.86362 -0.19300
C 	C 	0.75319 0.28497 0.86721 0.08800
C 	C 	0.90870 0.31480 0.14075 0.05500
C 	C 	0.13948 0.65258 0.96139 0.28500
C 	C 	0.72766 0.09777 0.97960 0.19100
C 	C 	0.74149 0.11308 0.02756 0.24200
O 	O 	0.77932 0.09310 0.88745 -0.17900
O 	O 	0.77867 0.59233 0.13516 -0.19600
O 	O 	0.12360 0.51687 0.87478 -0.26900
O 	O 	0.09803 0.50775 0.95044 -0.32000
O 	O 	0.15272 0.07304 0.86536 -0.38600
O 	O 	0.19515 0.16446 0.90926 -0.30700
O 	O 	0.76607 0.24294 0.86773 -0.12600
O 	O 	0.77325 0.25394 0.11721 -0.21800
O 	O 	0.87277 0.25883 0.86794 -0.15500
O 	O 	0.87332 0.25883 0.11716 -0.16000
O 	O 	0.10852 0.59481 0.19471 -0.36300
O 	O 	0.17848 0.66629 0.96710 -0.33900
O 	O 	0.74301 0.14410 0.95377 -0.54200
O 	O 	0.18697 0.54850 0.96594 -0.44000
O 	O 	0.71115 0.08389 0.05389 -0.54600
O 	O 	0.78004 0.16545 0.04432 -0.50400
C 	C 	0.77294 0.54179 0.85871 0.04600
C 	C 	0.08812 0.48434 0.90104 0.14900
C 	C 	0.93374 0.55556 0.92700 0.03600
C 	C 	0.91211 0.58063 0.93737 -0.04300
C 	C 	0.88797 0.55809 0.97606 -0.06000
C 	C 	0.88086 0.50602 0.99917 0.07700
N 	N 	0.85088 0.47915 0.03255 -0.08700
N 	N 	0.81105 0.44937 0.01323 -0.09000
C 	C 	0.79478 0.43804 0.95754 0.09000
C 	C 	0.79137 0.38839 0.93087 -0.07600
C 	C 	0.77173 0.36452 0.87795 0.01000
C 	C 	0.76105 0.41219 0.85222 -0.04500
C 	C 	0.77335 0.47725 0.87904 0.01100
C 	C 	0.78873 0.48144 0.93294 -0.08000
C 	C 	0.89470 0.47318 0.97978 -0.06100
C 	C 	0.92040 0.49718 0.94241 -0.04400
C 	C 	0.98087 0.60006 0.93662 -0.10900
C 	C 	0.00101 0.15454 0.90382 -0.05400
C 	C 	0.04934 0.20336 0.93099 -0.06800
C 	C 	0.09778 0.25099 0.92768 -0.09100
C 	C 	0.12302 0.22357 0.92357 -0.00900
C 	C 	0.13146 0.69812 0.97338 -0.21200
H 	H 	0.92154 0.12510 0.92516 0.03800
H 	H 	0.87485 0.58137 0.98807 0.04600
H 	H 	0.80155 0.36365 0.95471 0.05900
H 	H 	0.74182 0.39792 0.81177 0.04700
H 	H 	0.79785 0.52156 0.95725 0.05700
H 	H 	0.88633 0.42999 0.99405 0.04600
H 	H 	0.93658 0.47659 0.93426 0.03600
H 	H 	0.99547 0.57492 0.93325 0.04600
H 	H 	0.98928 0.12047 0.97715 0.05200
H 	H 	0.98307 0.17543 0.89763 0.04100
H 	H 	0.99502 0.63023 0.86809 0.04200
H 	H 	0.05410 0.16907 0.94437 0.04500
H 	H 	0.04522 0.22916 0.95907 0.04900
H 	H 	0.10261 0.28181 0.89755 0.05300
H 	H 	0.11494 0.28173 0.96568 0.04700
H 	H 	0.10132 0.18495 0.89449 0.03500
H 	H 	0.15363 0.25518 0.91026 0.03500
H 	H 	0.10295 0.67202 0.98974 0.08200
H 	H 	0.15830 0.23580 0.00386 0.08000
C 	C 	0.04938 0.23091 0.06137 0.02700
C 	C 	0.00592 0.20840 0.05360 -0.03600
C 	C 	0.99287 0.24498 0.03738 -0.07000
C 	C 	0.02128 0.29958 0.01795 0.08400
N 	N 	0.00280 0.32140 0.98065 -0.08100
N 	N 	0.98323 0.34184 0.99407 -0.09200
C 	C 	0.98811 0.35894 0.04780 0.08900
C 	C 	0.02989 0.40583 0.07538 -0.08200
C 	C 	0.03818 0.43068 0.12637 0.01700
C 	C 	0.99836 0.40457 0.89863 -0.05000
C 	C 	0.95409 0.34965 0.12187 0.02100
C 	C 	0.95214 0.32872 0.07127 -0.08700
C 	C 	0.06573 0.32698 0.03006 -0.06700
C 	C 	0.08016 0.29349 0.05427 -0.04400
C 	C 	0.06223 0.18828 0.05772 -0.11800
C 	C 	0.03573 0.11863 0.06745 -0.05200
C 	C 	0.04090 0.57636 0.03448 -0.07800
C 	C 	0.07857 0.57351 0.05714 -0.05600
C 	C 	0.12118 0.63613 0.07776 -0.08000
C 	C 	0.16211 0.14717 0.06794 0.00100
H 	H 	0.98040 0.16067 0.05209 0.03200
H 	H 	0.95882 0.22552 0.03105 0.04900
H 	H 	0.05656 0.42401 0.05549 0.07600
H 	H 	0.00187 0.42748 0.93555 0.06200
H 	H 	0.92191 0.28918 0.04851 0.05500
H 	H 	0.08853 0.37148 0.01800 0.05800
H 	H 	0.11444 0.31284 0.05969 0.03300
H 	H 	0.09723 0.21755 0.06259 0.04500
H 	H 	0.05438 0.17960 0.01790 0.05400
H 	H 	0.00103 0.59794 0.05335 0.03300
H 	H 	0.04024 0.11057 0.10945 0.04300
H 	H 	0.04318 0.58773 0.99391 0.04800
H 	H 	0.01104 0.52883 0.03180 0.04300
H 	H 	0.06919 0.54526 0.09038 0.05800
H 	H 	0.08185 0.54851 0.02695 0.07400
H 	H 	0.12547 0.17825 0.82026 0.04600
H 	H 	0.12308 0.64020 0.86940 0.06600
H 	H 	0.18558 0.19555 0.06216 0.03600
H 	H 	0.15493 0.61335 0.03669 0.03100
Ca	Ca	0.72145 0.61761 0.12703 1.51000
Cd	Cd	0.15442 0.08007 0.18384 1.30500
Cd	Cd	0.80216 0.69412 0.36685 1.16800
C 	C 	0.17898 0.63072 0.11154 -0.16300
C 	C 	0.77004 0.79676 0.10430 0.05900
C 	C 	0.90878 0.81484 0.39091 0.05500
C 	C 	0.13957 0.15283 0.21151 0.28800
C 	C 	0.72749 0.59556 0.23018 0.20600
C 	C 	0.74124 0.61137 0.27815 0.23600
O 	O 	0.77886 0.59364 0.13592 -0.17800
O 	O 	0.77904 0.09244 0.38479 -0.19600
O 	O 	0.12313 0.01690 0.12453 -0.26500
O 	O 	0.09846 0.00788 0.20066 -0.31500
O 	O 	0.15246 0.57248 0.11428 -0.39900
O 	O 	0.19387 0.66453 0.15659 -0.31300
O 	O 	0.77188 0.74950 0.13142 -0.14400
O 	O 	0.77279 0.75308 0.36709 -0.21700
O 	O 	0.87209 0.75963 0.11774 -0.15200
O 	O 	0.87311 0.75940 0.36681 -0.15700
O 	O 	0.10870 0.09446 0.44487 -0.36200
O 	O 	0.17861 0.16678 0.21684 -0.34300
O 	O 	0.74364 0.64177 0.20436 -0.54600
O 	O 	0.18896 0.05234 0.21456 -0.44500
O 	O 	0.71087 0.58228 0.30445 -0.54500
O 	O 	0.77968 0.66419 0.29474 -0.50000
C 	C 	0.77591 0.04310 0.10826 0.04700
C 	C 	0.08798 0.98449 0.15111 0.14200
C 	C 	0.93278 0.05524 0.17786 0.03600
C 	C 	0.91043 0.07950 0.18726 -0.04300
C 	C 	0.88381 0.05430 0.22329 -0.06100
C 	C 	0.87583 0.00125 0.24523 0.08100
N 	N 	0.84681 0.97468 0.27997 -0.08800
N 	N 	0.80663 0.94349 0.26253 -0.08900
C 	C 	0.78852 0.93078 0.20734 0.08800
C 	C 	0.78357 0.87955 0.18089 -0.07800
C 	C 	0.77143 0.86283 0.12624 0.01600
C 	C 	0.76603 0.91517 0.10012 -0.04900
C 	C 	0.77425 0.97673 0.12834 0.00900
C 	C 	0.78451 0.97617 0.18277 -0.08400
C 	C 	0.89122 0.96998 0.22703 -0.06500
C 	C 	0.91908 0.99633 0.19216 -0.04600
C 	C 	0.97997 0.10018 0.18785 -0.10400
C 	C 	0.00100 0.65458 0.15404 -0.05900
C 	C 	0.04935 0.70335 0.18112 -0.06600
C 	C 	0.09779 0.75093 0.17777 -0.09300
C 	C 	0.12297 0.72346 0.17348 -0.00700
C 	C 	0.13143 0.19820 0.22356 -0.21800
H 	H 	0.92168 0.62519 0.17513 0.03800
H 	H 	0.87052 0.07734 0.23525 0.04600
H 	H 	0.79222 0.85332 0.20492 0.06500
H 	H 	0.75359 0.90689 0.05755 0.05000
H 	H 	0.79292 0.01548 0.20768 0.05800
H 	H 	0.88323 0.92697 0.24133 0.04600
H 	H 	0.93618 0.97674 0.18522 0.03500
H 	H 	0.99464 0.07501 0.18572 0.04500
H 	H 	0.98934 0.62004 0.22722 0.05100
H 	H 	0.98309 0.67551 0.14800 0.04200
H 	H 	0.99375 0.12806 0.11846 0.04500
H 	H 	0.05409 0.66905 0.19448 0.04400
H 	H 	0.04528 0.72920 0.20918 0.04700
H 	H 	0.10268 0.78189 0.14777 0.05300
H 	H 	0.11498 0.78157 0.21582 0.04500
H 	H 	0.10135 0.68489 0.14430 0.03400
H 	H 	0.15361 0.75511 0.16024 0.03200
H 	H 	0.10292 0.17208 0.23989 0.08300
H 	H 	0.15827 0.73563 0.25375 0.08300
C 	C 	0.04932 0.73093 0.31144 0.02900
C 	C 	0.00586 0.70836 0.30372 -0.03900
C 	C 	0.99274 0.74487 0.28744 -0.06800
C 	C 	0.02110 0.79946 0.26795 0.08500
N 	N 	0.00256 0.82119 0.23057 -0.08400
N 	N 	0.98306 0.84179 0.24390 -0.09300
C 	C 	0.98799 0.85905 0.29762 0.09300
C 	C 	0.02980 0.90580 0.32520 -0.08400
C 	C 	0.03817 0.93065 0.37621 0.01800
C 	C 	0.99792 0.90521 0.14838 -0.04900
C 	C 	0.95408 0.84993 0.37179 0.02200
C 	C 	0.95204 0.82905 0.32111 -0.08800
C 	C 	0.06556 0.82691 0.28002 -0.06700
C 	C 	0.08005 0.79349 0.30425 -0.04400
C 	C 	0.06220 0.68833 0.30782 -0.11800
C 	C 	0.03571 0.61870 0.31761 -0.05400
C 	C 	0.04105 0.07626 0.28453 -0.07500
C 	C 	0.07871 0.07350 0.30750 -0.05600
C 	C 	0.12137 0.13618 0.32808 -0.08500
C 	C 	0.16193 0.64692 0.31783 -0.00600
H 	H 	0.98041 0.66063 0.30236 0.03400
H 	H 	0.95868 0.72535 0.28116 0.05000
H 	H 	0.05646 0.92379 0.30532 0.07600
H 	H 	0.00128 0.92841 0.18504 0.05900
H 	H 	0.92176 0.78955 0.29840 0.05700
H 	H 	0.08832 0.87137 0.26788 0.05700
H 	H 	0.11433 0.81287 0.30961 0.03300
H 	H 	0.09721 0.71762 0.31270 0.04600
H 	H 	0.05435 0.67963 0.26801 0.05600
H 	H 	0.00102 0.09777 0.30315 0.03500
H 	H 	0.04031 0.61067 0.35961 0.04300
H 	H 	0.04345 0.08752 0.24394 0.04600
H 	H 	0.01117 0.02873 0.28181 0.04400
H 	H 	0.06924 0.04538 0.34080 0.05900
H 	H 	0.08201 0.04836 0.27744 0.07600
H 	H 	0.12446 0.67685 0.06972 0.04400
H 	H 	0.12241 0.13888 0.11885 0.06300
H 	H 	0.18537 0.69523 0.31193 0.03900
H 	H 	0.15494 0.11359 0.28686 0.03200
Ca	Ca	0.72083 0.61038 0.37648 1.50800
Cd	Cd	0.15425 0.07932 0.43393 1.30500
Cd	Cd	0.80063 0.69543 0.61518 1.16400
C 	C 	0.17869 0.63016 0.36146 -0.15300
C 	C 	0.75312 0.78372 0.36672 0.08800
C 	C 	0.90776 0.81557 0.63988 0.05500
C 	C 	0.13953 0.15245 0.46115 0.28700
C 	C 	0.72796 0.60007 0.48028 0.19500
C 	C 	0.74088 0.62001 0.52728 0.24600
O 	O 	0.78168 0.59410 0.38700 -0.17600
O 	O 	0.78079 0.09203 0.63725 -0.20600
O 	O 	0.12313 0.01659 0.37427 -0.26400
O 	O 	0.09830 0.00758 0.45043 -0.31600
O 	O 	0.15215 0.57193 0.36406 -0.40200
O 	O 	0.19351 0.66376 0.40665 -0.31200
O 	O 	0.76549 0.74076 0.36735 -0.12500
O 	O 	0.77162 0.75186 0.63004 -0.18100
O 	O 	0.87304 0.75945 0.36694 -0.15500
O 	O 	0.87207 0.75958 0.61691 -0.15500
O 	O 	0.10852 0.09461 0.69545 -0.36200
O 	O 	0.17853 0.16622 0.46672 -0.34400
O 	O 	0.74359 0.64332 0.45147 -0.56000
O 	O 	0.18770 0.04978 0.46479 -0.44100
O 	O 	0.71085 0.59266 0.55358 -0.54900
O 	O 	0.77868 0.67308 0.54292 -0.51200
C 	C 	0.77163 0.04137 0.35692 0.04500
C 	C 	0.08803 0.98418 0.40093 0.14100
C 	C 	0.93389 0.05563 0.42680 0.03900
C 	C 	0.91224 0.08073 0.43705 -0.04400
C 	C 	0.88813 0.05827 0.47569 -0.06100
C 	C 	0.88116 0.00636 0.49888 0.08100
N 	N 	0.85091 0.97929 0.53161 -0.08900
N 	N 	0.81127 0.94972 0.51155 -0.09100
C 	C 	0.79527 0.93852 0.45589 0.08800
C 	C 	0.79159 0.88843 0.42956 -0.07600
C 	C 	0.77148 0.86371 0.37686 0.01000
C 	C 	0.76041 0.91135 0.35116 -0.04500
C 	C 	0.77271 0.97692 0.37751 0.01000
C 	C 	0.78870 0.98155 0.43132 -0.08300
C 	C 	0.89490 0.97337 0.47962 -0.06500
C 	C 	0.92056 0.99727 0.44228 -0.04700
C 	C 	0.98099 0.10009 0.43661 -0.11100
C 	C 	0.99987 0.65344 0.40404 -0.06900
C 	C 	0.04852 0.70205 0.43043 -0.06100
C 	C 	0.09715 0.75029 0.42780 -0.09500
C 	C 	0.12276 0.72345 0.42357 -0.00600
C 	C 	0.13143 0.19788 0.47332 -0.21700
H 	H 	0.92006 0.62434 0.42637 0.03800
H 	H 	0.87480 0.08134 0.48754 0.04600
H 	H 	0.80188 0.86395 0.45366 0.05700
H 	H 	0.74092 0.89669 0.31090 0.04600
H 	H 	0.79764 0.02155 0.45568 0.05900
H 	H 	0.88640 0.93014 0.49393 0.04500
H 	H 	0.93676 0.97665 0.43428 0.03500
H 	H 	0.99558 0.07495 0.43316 0.04700
H 	H 	0.98775 0.62279 0.47832 0.05000
H 	H 	0.98222 0.67476 0.39717 0.04500
H 	H 	0.99523 0.13037 0.36819 0.04100
H 	H 	0.05321 0.66740 0.44329 0.04300
H 	H 	0.04452 0.72789 0.45867 0.04600
H 	H 	0.10219 0.78165 0.39809 0.05300
H 	H 	0.11405 0.78063 0.46603 0.04600
H 	H 	0.10147 0.68502 0.39424 0.03400
H 	H 	0.15343 0.75547 0.41050 0.03200
H 	H 	0.10296 0.17171 0.48978 0.08200
H 	H 	0.15817 0.73555 0.50369 0.08300
C 	C 	0.04932 0.73064 0.56098 0.02800
C 	C 	0.00588 0.70829 0.55336 -0.03800
C 	C 	0.99288 0.74499 0.53744 -0.06800
C 	C 	0.02127 0.79959 0.51804 0.08500
N 	N 	0.00274 0.82133 0.48071 -0.08400
N 	N 	0.98297 0.84148 0.49404 -0.09400
C 	C 	0.98775 0.85856 0.54776 0.09200
C 	C 	0.02953 0.90547 0.57535 -0.08400
C 	C 	0.03781 0.93065 0.62616 0.01800
C 	C 	0.99843 0.90489 0.39855 -0.04900
C 	C 	0.95344 0.84987 0.62144 0.02100
C 	C 	0.95165 0.82863 0.57104 -0.08700
C 	C 	0.06571 0.82688 0.53001 -0.06700
C 	C 	0.08011 0.79325 0.55398 -0.04400
C 	C 	0.06215 0.68793 0.55718 -0.11800
C 	C 	0.03577 0.61829 0.56701 -0.05400
C 	C 	0.04077 0.07645 0.53475 -0.07300
C 	C 	0.07843 0.07350 0.55723 -0.06000
C 	C 	0.12102 0.13602 0.57808 -0.07600
C 	C 	0.16225 0.64740 0.56795 -0.00800
H 	H 	0.98024 0.66057 0.55171 0.03300
H 	H 	0.95883 0.72553 0.53117 0.05000
H 	H 	0.05625 0.92347 0.55557 0.07600
H 	H 	0.00195 0.92778 0.43551 0.06000
H 	H 	0.92141 0.78913 0.54826 0.05500
H 	H 	0.08851 0.87142 0.51803 0.05800
H 	H 	0.11439 0.81261 0.55939 0.03300
H 	H 	0.09715 0.71732 0.56216 0.04600
H 	H 	0.05424 0.67900 0.51730 0.05600
H 	H 	0.00104 0.09824 0.55357 0.03500
H 	H 	0.04038 0.61046 0.60907 0.04300
H 	H 	0.04302 0.08781 0.49419 0.04500
H 	H 	0.01088 0.02894 0.53208 0.04300
H 	H 	0.06900 0.04507 0.59033 0.06000
H 	H 	0.08173 0.04866 0.52688 0.07600
H 	H 	0.12435 0.67671 0.31988 0.04300
H 	H 	0.12277 0.13935 0.36888 0.06500
H 	H 	0.18560 0.69575 0.56205 0.03900
H 	H 	0.15480 0.11347 0.53670 0.03400
Ca	Ca	0.72155 0.61765 0.62715 1.51000
Cd	Cd	0.15414 0.07992 0.68378 1.30500
Cd	Cd	0.80180 0.69428 0.86706 1.16700
C 	C 	0.17916 0.63098 0.61165 -0.15100
C 	C 	0.77033 0.79710 0.60455 0.05900
C 	C 	0.90863 0.81476 0.89085 0.05500
C 	C 	0.13934 0.15254 0.71195 0.28700
C 	C 	0.72784 0.59612 0.73046 0.20700
C 	C 	0.74117 0.61248 0.77833 0.23600
O 	O 	0.77926 0.59421 0.63562 -0.17500
O 	O 	0.77915 0.09183 0.88660 -0.19800
O 	O 	0.12302 0.01672 0.62428 -0.26500
O 	O 	0.09812 0.00795 0.70024 -0.31600
O 	O 	0.15289 0.57272 0.61435 -0.40400
O 	O 	0.19383 0.66468 0.65676 -0.30700
O 	O 	0.77153 0.74937 0.63174 -0.14900
O 	O 	0.77331 0.75435 0.86748 -0.21700
O 	O 	0.87219 0.75948 0.61672 -0.15800
O 	O 	0.87324 0.75849 0.86761 -0.15900
O 	O 	0.10873 0.09482 0.94515 -0.36100
O 	O 	0.17835 0.16665 0.71668 -0.34300
O 	O 	0.74409 0.64212 0.70442 -0.54600
O 	O 	0.18832 0.05207 0.71555 -0.44500
O 	O 	0.71057 0.58412 0.80429 -0.54400
O 	O 	0.77968 0.66503 0.79499 -0.50100
C 	C 	0.77590 0.04344 0.60867 0.04900
C 	C 	0.08782 0.98441 0.65081 0.14100
C 	C 	0.93288 0.05540 0.67809 0.03900
C 	C 	0.91041 0.07949 0.68736 -0.04400
C 	C 	0.88372 0.05416 0.72331 -0.06000
C 	C 	0.87578 0.00110 0.74523 0.08000
N 	N 	0.84678 0.97447 0.78002 -0.08700
N 	N 	0.80659 0.94339 0.76266 -0.08900
C 	C 	0.78847 0.93077 0.70748 0.08900
C 	C 	0.78349 0.87955 0.68103 -0.07900
C 	C 	0.77136 0.86289 0.62643 0.01700
C 	C 	0.76598 0.91530 0.60030 -0.04900
C 	C 	0.77421 0.97690 0.62854 0.00900
C 	C 	0.78447 0.97620 0.68295 -0.08400
C 	C 	0.89125 0.96996 0.72704 -0.06400
C 	C 	0.91922 0.99647 0.69229 -0.04800
C 	C 	0.98006 0.10051 0.68826 -0.11200
C 	C 	0.00096 0.65435 0.65393 -0.05800
C 	C 	0.04933 0.70319 0.68097 -0.06700
C 	C 	0.09781 0.75072 0.67770 -0.09300
C 	C 	0.12301 0.72319 0.67362 -0.00700
C 	C 	0.13134 0.19808 0.72390 -0.21800
H 	H 	0.92155 0.62506 0.67515 0.03800
H 	H 	0.87037 0.07712 0.73523 0.04600
H 	H 	0.79209 0.85321 0.70495 0.06500
H 	H 	0.75353 0.90704 0.55772 0.05100
H 	H 	0.79288 0.01544 0.70793 0.05800
H 	H 	0.88327 0.92693 0.74127 0.04600
H 	H 	0.93639 0.97699 0.68538 0.03500
H 	H 	0.99484 0.07544 0.68651 0.04700
H 	H 	0.98923 0.62040 0.72728 0.05100
H 	H 	0.98306 0.67529 0.64772 0.04200
H 	H 	0.99369 0.12791 0.61868 0.04000
H 	H 	0.05407 0.66887 0.69434 0.04400
H 	H 	0.04526 0.72909 0.70901 0.04700
H 	H 	0.10269 0.78160 0.64759 0.05200
H 	H 	0.11496 0.78147 0.71570 0.04500
H 	H 	0.10134 0.68462 0.64443 0.03400
H 	H 	0.15364 0.75483 0.66035 0.03200
H 	H 	0.10283 0.17218 0.74022 0.08300
H 	H 	0.15833 0.73543 0.75401 0.08300
C 	C 	0.04935 0.73084 0.81123 0.02800
C 	C 	0.00585 0.70831 0.80318 -0.03800
C 	C 	0.99287 0.74500 0.78717 -0.06800
C 	C 	0.02133 0.79969 0.76790 0.08500
N 	N 	0.00290 0.82169 0.73070 -0.08400
N 	N 	0.98336 0.84212 0.74420 -0.09300
C 	C 	0.98821 0.85902 0.79799 0.09300
C 	C 	0.03002 0.90583 0.82564 -0.08400
C 	C 	0.03836 0.93073 0.87660 0.01900
C 	C 	0.99785 0.90496 0.64822 -0.04900
C 	C 	0.95412 0.84958 0.87203 0.02200
C 	C 	0.95220 0.82873 0.82141 -0.08800
C 	C 	0.06577 0.82703 0.78007 -0.06700
C 	C 	0.08015 0.79345 0.80422 -0.04400
C 	C 	0.06226 0.68823 0.80762 -0.11900
C 	C 	0.03599 0.61858 0.81743 -0.05300
C 	C 	0.04184 0.07659 0.78502 -0.07400
C 	C 	0.08009 0.07487 0.80788 -0.05700
C 	C 	0.12256 0.13793 0.82874 -0.08400
C 	C 	0.16403 0.65029 0.82047 0.00900
H 	H 	0.98027 0.66053 0.80137 0.03300
H 	H 	0.95882 0.72555 0.78082 0.05000
H 	H 	0.05671 0.92399 0.80579 0.07600
H 	H 	0.00124 0.92804 0.68497 0.05900
H 	H 	0.92194 0.78924 0.79863 0.05600
H 	H 	0.08860 0.87156 0.76810 0.05700
H 	H 	0.11443 0.81281 0.80969 0.03300
H 	H 	0.09719 0.71759 0.81223 0.04600
H 	H 	0.05426 0.67939 0.76783 0.05600
H 	H 	0.00133 0.09764 0.80305 0.03500
H 	H 	0.04046 0.61056 0.85944 0.04300
H 	H 	0.04367 0.08713 0.74416 0.04600
H 	H 	0.01223 0.02888 0.78282 0.04400
H 	H 	0.07072 0.04650 0.84105 0.06000
H 	H 	0.08374 0.05013 0.77790 0.07700
H 	H 	0.12439 0.67661 0.56994 0.04300
H 	H 	0.12226 0.13871 0.61902 0.06200
H 	H 	0.18814 0.69948 0.81668 0.03400
H 	H 	0.15761 0.11767 0.78844 0.03400
Ca	Ca	0.72075 0.61282 0.87629 1.50900
Cd	Cd	0.15439 0.07962 0.93477 1.30500
Cd	Cd	0.80066 0.69532 0.11532 1.16400
C 	C 	0.17975 0.63132 0.86381 -0.19500
C 	C 	0.75318 0.78437 0.86687 0.08800
C 	C 	0.90776 0.81598 0.13998 0.05500
C 	C 	0.13955 0.15279 0.96156 0.28500
C 	C 	0.72824 0.60067 0.98010 0.19900
C 	C 	0.74121 0.62013 0.02722 0.24200
O 	O 	0.78027 0.59384 0.88728 -0.17500
O 	O 	0.78098 0.09221 0.13611 -0.20000
O 	O 	0.12376 0.01704 0.87515 -0.26800
O 	O 	0.09824 0.00806 0.95080 -0.31600
O 	O 	0.15256 0.57280 0.86540 -0.38500
O 	O 	0.19541 0.66413 0.90962 -0.30900
O 	O 	0.76622 0.74246 0.86735 -0.12600
O 	O 	0.77161 0.75200 0.13035 -0.18600
O 	O 	0.87298 0.75872 0.86806 -0.15200
O 	O 	0.87244 0.75943 0.11720 -0.16100
O 	O 	0.10879 0.09483 0.19519 -0.36300
O 	O 	0.17857 0.16654 0.96731 -0.34000
O 	O 	0.74366 0.64451 0.95177 -0.55700
O 	O 	0.18740 0.04950 0.96587 -0.44000
O 	O 	0.71102 0.59303 0.05334 -0.54800
O 	O 	0.77917 0.67294 0.04307 -0.51200
C 	C 	0.77188 0.04107 0.85848 0.04700
C 	C 	0.08831 0.98455 0.90143 0.14200
C 	C 	0.93390 0.05567 0.92668 0.03900
C 	C 	0.91234 0.08080 0.93726 -0.04300
C 	C 	0.88851 0.05844 0.97620 -0.06200
C 	C 	0.88160 0.00647 0.99922 0.08300
N 	N 	0.85153 0.97934 0.03219 -0.09000
N 	N 	0.81185 0.94946 0.01238 -0.09300
C 	C 	0.79559 0.93832 0.95678 0.09000
C 	C 	0.79167 0.88827 0.93014 -0.07700
C 	C 	0.77142 0.86393 0.87747 0.01000
C 	C 	0.76008 0.91121 0.85210 -0.04500
C 	C 	0.77264 0.97660 0.87879 0.01000
C 	C 	0.78906 0.98142 0.93245 -0.08400
C 	C 	0.89518 0.97345 0.97962 -0.06500
C 	C 	0.92060 0.99728 0.94203 -0.04700
C 	C 	0.98101 0.10011 0.93647 -0.11200
C 	C 	0.00086 0.65448 0.90392 -0.05800
C 	C 	0.04925 0.70330 0.93095 -0.06700
C 	C 	0.09776 0.75096 0.92779 -0.09200
C 	C 	0.12298 0.72355 0.92349 -0.00900
C 	C 	0.13153 0.19831 0.97358 -0.21200
H 	H 	0.92139 0.62496 0.92525 0.03800
H 	H 	0.87537 0.08164 0.98842 0.04700
H 	H 	0.80187 0.86350 0.95391 0.05800
H 	H 	0.74019 0.89641 0.81201 0.04600
H 	H 	0.79847 0.02168 0.95680 0.05900
H 	H 	0.88676 0.93024 0.99391 0.04600
H 	H 	0.93672 0.97663 0.93379 0.03500
H 	H 	0.99562 0.07498 0.93309 0.04700
H 	H 	0.98917 0.62048 0.97727 0.05200
H 	H 	0.98296 0.67542 0.89777 0.04200
H 	H 	0.99527 0.13032 0.86800 0.04000
H 	H 	0.05399 0.66894 0.94422 0.04400
H 	H 	0.04518 0.72912 0.95905 0.04900
H 	H 	0.10268 0.78200 0.89783 0.05300
H 	H 	0.11489 0.78153 0.96588 0.04600
H 	H 	0.10131 0.68506 0.89435 0.03500
H 	H 	0.15361 0.75522 0.91022 0.03400
H 	H 	0.10305 0.17221 0.98999 0.08200
H 	H 	0.15824 0.73559 0.00367 0.08000
C 	C 	0.04931 0.73083 0.06123 0.02900
C 	C 	0.00583 0.70833 0.05328 -0.04000
C 	C 	0.99284 0.74504 0.03741 -0.06700
C 	C 	0.02126 0.79969 0.01808 0.08200
N 	N 	0.00274 0.82149 0.98082 -0.08200
N 	N 	0.98299 0.84162 0.99423 -0.09200
C 	C 	0.98780 0.85867 0.04797 0.08900
C 	C 	0.02960 0.90559 0.07556 -0.08300
C 	C 	0.03791 0.93080 0.12641 0.01700
C 	C 	0.99845 0.90479 0.89876 -0.04900
C 	C 	0.95349 0.85009 0.12164 0.02000
C 	C 	0.95171 0.82875 0.07129 -0.08700
C 	C 	0.06570 0.82702 0.03012 -0.06600
C 	C 	0.08011 0.79345 0.05423 -0.04500
C 	C 	0.06220 0.68820 0.05759 -0.11900
C 	C 	0.03577 0.61850 0.06731 -0.05200
C 	C 	0.04087 0.07648 0.03464 -0.07800
C 	C 	0.07849 0.07350 0.05729 -0.05700
C 	C 	0.12113 0.13602 0.07797 -0.08100
C 	C 	0.16218 0.64731 0.06789 -0.00000
H 	H 	0.98022 0.66056 0.05143 0.03300
H 	H 	0.95879 0.72557 0.03108 0.04900
H 	H 	0.05630 0.92359 0.05574 0.07500
H 	H 	0.00178 0.92773 0.93556 0.06000
H 	H 	0.92144 0.78927 0.04850 0.05400
H 	H 	0.08851 0.87152 0.01806 0.05700
H 	H 	0.11439 0.81281 0.05965 0.03300
H 	H 	0.09719 0.71754 0.06240 0.04600
H 	H 	0.05432 0.67947 0.01779 0.05500
H 	H 	0.00103 0.09818 0.05335 0.03400
H 	H 	0.04038 0.61049 0.10932 0.04300
H 	H 	0.04320 0.08791 0.99409 0.04900
H 	H 	0.01098 0.02896 0.03187 0.04400
H 	H 	0.06905 0.04519 0.09048 0.05900
H 	H 	0.08176 0.04850 0.02707 0.07500
H 	H 	0.12518 0.67800 0.82030 0.04600
H 	H 	0.12348 0.14070 0.86940 0.06600
H 	H 	0.18564 0.69567 0.06203 0.03600
H 	H 	0.15485 0.11318 0.03673 0.03000
