data_crystal

_cell_length_a 30.59700
_cell_length_b 27.44350
_cell_length_c 20.59910
_cell_angle_alpha 104.11900
_cell_angle_beta  86.99500
_cell_angle_gamma 124.91600

_symmetry_space_group_name_	'P 1'
_symmetry_space_group_name_H-M	'P 1'

loop_
_symmetry_equiv_pos_as_xyz
  x,y,z

loop_
_atom_site_label
_atom_site_type_symbol
_atom_site_fract_x
_atom_site_fract_y
_atom_site_fract_z
_atom_site_charge
O 	O 	0.37068 0.32907 0.13502 -0.51800
O 	O 	0.41505 0.37118 0.23906 -0.47100
O 	O 	0.32349 0.22223 0.43068 -0.52900
Mg	Mg	0.33867 0.32349 0.27211 1.46100
Mg	Mg	0.72997 0.59316 0.41815 1.46200
C 	C 	0.69166 0.25281 0.13021 0.31900
In	In	0.28900 0.26336 0.14409 2.02100
In	In	0.73291 0.64983 0.21739 2.02000
C 	C 	0.25886 0.54697 0.17963 0.30500
O 	O 	0.25066 0.58582 0.22230 -0.51400
O 	O 	0.30995 0.19593 0.25616 -0.52700
O 	O 	0.34017 0.28457 0.33922 -0.49700
O 	O 	0.27323 0.24471 0.22777 -0.91800
C 	C 	0.41712 0.36879 0.17479 0.30800
C 	C 	0.32560 0.22697 0.31918 0.22000
O 	O 	0.69645 0.26433 0.19659 -0.27200
O 	O 	0.72674 0.24827 0.42719 -0.50800
C 	C 	0.31031 0.19223 0.36747 0.23100
O 	O 	0.31266 0.37833 0.27629 -0.48400
O 	O 	0.29368 0.34916 0.16222 -0.46400
C 	C 	0.62264 0.52705 0.13158 0.30000
O 	O 	0.63655 0.64956 0.19300 -0.27300
O 	O 	0.68596 0.16030 0.28216 -0.51200
C 	C 	0.29915 0.38687 0.22138 0.29700
O 	O 	0.64914 0.53673 0.41055 -0.49100
O 	O 	0.65097 0.56347 0.19146 -0.47000
C 	C 	0.64355 0.65414 0.25729 0.32400
C 	C 	0.32710 0.53914 0.31632 0.05000
C 	C 	0.31030 0.55743 0.27366 -0.06900
C 	C 	0.28187 0.51883 0.21126 0.00900
N 	N 	0.27648 0.46202 0.18970 -0.08600
C 	C 	0.29814 0.44488 0.23177 0.01000
C 	C 	0.32289 0.48509 0.29538 -0.05400
C 	C 	0.35859 0.58083 0.37792 -0.03000
C 	C 	0.39150 0.59972 0.42306 0.00700
C 	C 	0.43902 0.60700 0.43656 0.00100
C 	C 	0.47591 0.60640 0.41607 -0.03500
C 	C 	0.51357 0.60828 0.37174 0.05800
C 	C 	0.55433 0.60569 0.39299 -0.08000
C 	C 	0.59659 0.11947 0.35424 0.04500
C 	C 	0.59782 0.13575 0.29458 -0.09500
C 	C 	0.55394 0.63215 0.27043 0.03400
C 	C 	0.51170 0.61820 0.30878 -0.07800
H 	H 	0.32234 0.60414 0.28852 0.08000
H 	H 	0.34170 0.47640 0.32968 0.06400
H 	H 	0.55440 0.59534 0.44009 0.07200
H 	H 	0.62913 0.11961 0.37243 0.04500
H 	H 	0.55323 0.64255 0.22326 0.03500
H 	H 	0.47923 0.61844 0.29082 0.05700
C 	C 	0.49842 0.38116 0.03084 0.08900
C 	C 	0.45972 0.36430 0.07349 -0.07900
C 	C 	0.46913 0.39874 0.13954 0.01300
N 	N 	0.52158 0.45265 0.16263 -0.08700
C 	C 	0.56293 0.47004 0.11961 0.01200
C 	C 	0.54996 0.43121 0.05441 -0.06400
C 	C 	0.48903 0.33497 0.97239 -0.06000
C 	C 	0.49440 0.29499 0.94772 0.00800
C 	C 	0.51613 0.26668 0.96375 0.00600
C 	C 	0.54434 0.26469 0.99901 -0.06600
C 	C 	0.58199 0.26531 0.03602 0.08100
C 	C 	0.62863 0.27977 0.34095 -0.08000
C 	C 	0.66532 0.27707 0.37278 0.04300
C 	C 	0.65503 0.25958 0.09980 -0.08800
C 	C 	0.61003 0.25034 0.13137 0.03300
C 	C 	0.57341 0.25338 0.09895 -0.08200
H 	H 	0.42293 0.31965 0.05585 0.09000
H 	H 	0.58044 0.43775 0.02130 0.07400
H 	H 	0.63630 0.29206 0.29371 0.06700
H 	H 	0.70112 0.28725 0.34961 0.04700
H 	H 	0.60247 0.23870 0.17903 0.03600
H 	H 	0.53799 0.24488 0.12263 0.06200
O 	O 	0.37075 0.32934 0.46833 -0.52000
O 	O 	0.41512 0.37134 0.57235 -0.47300
O 	O 	0.32329 0.22225 0.76399 -0.53100
Mg	Mg	0.33874 0.32368 0.60546 1.46000
Mg	Mg	0.72957 0.59301 0.75131 1.46100
C 	C 	0.69168 0.25323 0.46365 0.31800
In	In	0.28905 0.26357 0.47752 2.02000
In	In	0.73299 0.64999 0.55047 2.02000
C 	C 	0.25871 0.54703 0.51303 0.30500
O 	O 	0.25052 0.58593 0.55562 -0.51400
O 	O 	0.30999 0.19612 0.58947 -0.52800
O 	O 	0.34022 0.28473 0.67257 -0.49600
O 	O 	0.27325 0.24490 0.56119 -0.91800
C 	C 	0.41720 0.36901 0.50807 0.30900
C 	C 	0.32559 0.22711 0.65251 0.21900
O 	O 	0.69650 0.26466 0.52982 -0.27200
O 	O 	0.72665 0.24807 0.76056 -0.50900
C 	C 	0.31016 0.19231 0.70077 0.23100
O 	O 	0.31270 0.37851 0.60969 -0.48400
O 	O 	0.29361 0.34930 0.49565 -0.46500
C 	C 	0.62277 0.52725 0.46480 0.30200
O 	O 	0.63681 0.64997 0.52600 -0.27300
O 	O 	0.68609 0.16043 0.61563 -0.51200
C 	C 	0.29909 0.38700 0.55482 0.29700
O 	O 	0.64875 0.53667 0.74364 -0.49100
O 	O 	0.65104 0.56374 0.52469 -0.47100
C 	C 	0.64377 0.65457 0.59030 0.32400
C 	C 	0.32690 0.53922 0.64975 0.04900
C 	C 	0.31022 0.55756 0.60700 -0.06900
C 	C 	0.28171 0.51890 0.54468 0.00700
N 	N 	0.27631 0.46209 0.52314 -0.08700
C 	C 	0.29794 0.44492 0.56524 0.00900
C 	C 	0.32256 0.48509 0.62890 -0.05400
C 	C 	0.35849 0.58093 0.71128 -0.03000
C 	C 	0.39149 0.59963 0.75623 0.00600
C 	C 	0.43892 0.60657 0.76926 0.00100
C 	C 	0.47575 0.60593 0.74857 -0.03500
C 	C 	0.51343 0.60788 0.70426 0.05800
C 	C 	0.55428 0.60548 0.72561 -0.08000
C 	C 	0.59666 0.11952 0.68771 0.04500
C 	C 	0.59797 0.13597 0.62814 -0.09500
C 	C 	0.55405 0.63227 0.60322 0.03400
C 	C 	0.51165 0.61796 0.64137 -0.07800
H 	H 	0.32241 0.60433 0.62172 0.08000
H 	H 	0.34125 0.47634 0.66329 0.06400
H 	H 	0.55433 0.59509 0.77269 0.07200
H 	H 	0.62915 0.11956 0.70585 0.04500
H 	H 	0.55341 0.64285 0.55614 0.03500
H 	H 	0.47912 0.61807 0.62333 0.05700
C 	C 	0.49857 0.38132 0.36417 0.04800
C 	C 	0.45986 0.36443 0.40681 -0.06400
C 	C 	0.46922 0.39894 0.47278 0.00600
N 	N 	0.52167 0.45291 0.49589 -0.08500
C 	C 	0.56301 0.47031 0.45280 0.00500
C 	C 	0.55003 0.43153 0.38763 -0.05000
C 	C 	0.48934 0.33502 0.30572 -0.02100
C 	C 	0.49449 0.29521 0.28096 0.00200
C 	C 	0.51609 0.26573 0.29612 0.00400
C 	C 	0.54325 0.26444 0.33349 -0.03400
C 	C 	0.58159 0.26444 0.36854 0.05800
C 	C 	0.62875 0.28004 0.67481 -0.08000
C 	C 	0.66533 0.27708 0.70658 0.04400
C 	C 	0.65493 0.25979 0.43318 -0.09300
C 	C 	0.61001 0.25049 0.46463 0.03300
C 	C 	0.57304 0.25303 0.43237 -0.07700
H 	H 	0.42312 0.31972 0.38925 0.08000
H 	H 	0.58049 0.43814 0.35445 0.06300
H 	H 	0.63640 0.29230 0.62760 0.06700
H 	H 	0.70108 0.28705 0.68323 0.04700
H 	H 	0.60257 0.23907 0.51257 0.03600
H 	H 	0.53770 0.24448 0.45594 0.05700
O 	O 	0.37051 0.32935 0.80167 -0.52100
O 	O 	0.41488 0.37114 0.90567 -0.48000
O 	O 	0.32335 0.22200 0.09705 -0.53700
Mg	Mg	0.33849 0.32357 0.93874 1.45800
Mg	Mg	0.72973 0.59304 0.08487 1.46200
C 	C 	0.69164 0.25289 0.79703 0.32000
In	In	0.28880 0.26354 0.81080 2.02000
In	In	0.73273 0.64980 0.88383 2.01900
C 	C 	0.25869 0.54717 0.84615 0.30700
O 	O 	0.25049 0.58609 0.88869 -0.52000
O 	O 	0.30967 0.19588 0.92257 -0.52000
O 	O 	0.33996 0.28449 0.00574 -0.46500
O 	O 	0.27300 0.24482 0.89445 -0.92300
C 	C 	0.41696 0.36893 0.84144 0.31000
C 	C 	0.32532 0.22686 0.98561 0.16500
O 	O 	0.69654 0.26440 0.86331 -0.27600
O 	O 	0.72669 0.24800 0.09395 -0.50400
C 	C 	0.31003 0.19204 0.03384 0.26700
O 	O 	0.31259 0.37857 0.94287 -0.49200
O 	O 	0.29349 0.34933 0.82883 -0.46600
C 	C 	0.62245 0.52708 0.79794 0.30200
O 	O 	0.63627 0.64939 0.85926 -0.27700
O 	O 	0.68599 0.16047 0.94863 -0.52500
C 	C 	0.29904 0.38709 0.88797 0.29900
O 	O 	0.64894 0.53665 0.07728 -0.48600
O 	O 	0.65080 0.56343 0.85782 -0.47400
C 	C 	0.64320 0.65390 0.92354 0.33700
C 	C 	0.32697 0.53938 0.98285 0.00200
C 	C 	0.31007 0.55761 0.94024 -0.05200
C 	C 	0.28165 0.51900 0.87786 -0.00200
N 	N 	0.27630 0.46222 0.85629 -0.08500
C 	C 	0.29802 0.44510 0.89833 -0.00000
C 	C 	0.32283 0.48537 0.96188 -0.03700
C 	C 	0.35846 0.58106 0.04445 0.01800
C 	C 	0.39138 0.59979 0.08951 -0.01800
C 	C 	0.43875 0.60667 0.10281 0.02800
C 	C 	0.47553 0.60587 0.08222 -0.05700
C 	C 	0.51306 0.60751 0.03780 0.11300
C 	C 	0.55397 0.60522 0.05918 -0.11500
C 	C 	0.59657 0.11939 0.02065 0.09800
C 	C 	0.59782 0.13582 0.96109 -0.14700
C 	C 	0.55334 0.63126 0.93641 0.06500
C 	C 	0.51107 0.61719 0.97474 -0.13400
H 	H 	0.32208 0.60430 0.95511 0.06700
H 	H 	0.34174 0.47674 0.99612 0.05100
H 	H 	0.55421 0.59519 0.10645 0.08200
H 	H 	0.62908 0.11944 0.03875 0.03700
H 	H 	0.55251 0.64146 0.88914 0.02500
H 	H 	0.47848 0.61719 0.95668 0.06400
C 	C 	0.49809 0.38106 0.69741 0.04700
C 	C 	0.45957 0.36407 0.74030 -0.06400
C 	C 	0.46898 0.39874 0.80618 0.00400
N 	N 	0.52142 0.45276 0.82912 -0.08700
C 	C 	0.56270 0.47011 0.78597 0.00400
C 	C 	0.54961 0.43130 0.72074 -0.04900
C 	C 	0.48871 0.33477 0.63898 -0.02100
C 	C 	0.49362 0.29444 0.61492 -0.00000
C 	C 	0.51531 0.26605 0.63140 0.00500
C 	C 	0.54381 0.26465 0.66660 -0.03500
C 	C 	0.58178 0.26532 0.70324 0.05900
C 	C 	0.62915 0.28004 0.00768 -0.05000
C 	C 	0.66553 0.27701 0.03970 0.03700
C 	C 	0.65492 0.25967 0.76676 -0.09400
C 	C 	0.61009 0.25052 0.79847 0.03300
C 	C 	0.57331 0.25354 0.76637 -0.07900
H 	H 	0.42290 0.31922 0.72300 0.08000
H 	H 	0.58004 0.43788 0.68750 0.06300
H 	H 	0.63692 0.29247 0.96067 0.04600
H 	H 	0.70136 0.28705 0.01643 0.05800
H 	H 	0.60257 0.23888 0.84618 0.03500
H 	H 	0.53802 0.24508 0.79012 0.05700
O 	O 	0.37083 0.82908 0.13514 -0.51800
O 	O 	0.41524 0.87128 0.23916 -0.47100
O 	O 	0.32359 0.72227 0.43081 -0.53000
Mg	Mg	0.33887 0.82363 0.27225 1.46000
Mg	Mg	0.73004 0.09331 0.41832 1.46100
C 	C 	0.69144 0.75274 0.13064 0.31200
In	In	0.28913 0.76341 0.14435 2.02000
In	In	0.73304 0.14993 0.21741 2.02000
C 	C 	0.25862 0.04682 0.17962 0.30600
O 	O 	0.25043 0.08571 0.22225 -0.51500
O 	O 	0.31014 0.69603 0.25628 -0.52700
O 	O 	0.34041 0.78469 0.33934 -0.49600
O 	O 	0.27349 0.74478 0.22801 -0.91800
C 	C 	0.41728 0.86880 0.17484 0.30800
C 	C 	0.32580 0.72708 0.31930 0.22000
O 	O 	0.69640 0.76433 0.19687 -0.27100
O 	O 	0.72659 0.74819 0.42742 -0.50900
C 	C 	0.31049 0.69231 0.36758 0.23100
O 	O 	0.31276 0.87839 0.27623 -0.48300
O 	O 	0.29375 0.84915 0.16216 -0.46300
C 	C 	0.62279 0.02710 0.13154 0.29100
O 	O 	0.63668 0.14956 0.19263 -0.27300
O 	O 	0.68592 0.66022 0.28236 -0.51200
C 	C 	0.29920 0.88688 0.22130 0.29800
O 	O 	0.64924 0.03692 0.41058 -0.49300
O 	O 	0.65112 0.06352 0.19146 -0.47000
C 	C 	0.64360 0.15417 0.25694 0.32400
C 	C 	0.32699 0.03906 0.31623 0.03300
C 	C 	0.31004 0.05727 0.27364 -0.06100
C 	C 	0.28163 0.01867 0.21125 -0.00200
N 	N 	0.27633 0.96191 0.18964 -0.07900
C 	C 	0.29812 0.94484 0.23166 0.00700
C 	C 	0.32294 0.98511 0.29521 -0.03800
C 	C 	0.35849 0.08077 0.37781 -0.02500
C 	C 	0.39147 0.09964 0.42285 0.00200
C 	C 	0.43899 0.10682 0.43606 0.00200
C 	C 	0.47582 0.10616 0.41542 -0.03700
C 	C 	0.51343 0.10795 0.37108 0.05700
C 	C 	0.55425 0.10551 0.39245 -0.08100
C 	C 	0.59664 0.61959 0.35472 0.04500
C 	C 	0.59784 0.63585 0.29506 -0.09500
C 	C 	0.55389 0.13192 0.26983 0.03300
C 	C 	0.51157 0.11782 0.30809 -0.07900
H 	H 	0.32203 0.10394 0.28853 0.07800
H 	H 	0.34192 0.97654 0.32941 0.06300
H 	H 	0.55437 0.09528 0.43962 0.07000
H 	H 	0.62916 0.61967 0.37286 0.04600
H 	H 	0.55322 0.14238 0.22268 0.03400
H 	H 	0.47906 0.11797 0.29005 0.05600
C 	C 	0.49850 0.88119 0.03077 0.10200
C 	C 	0.45986 0.86427 0.07356 -0.08500
C 	C 	0.46928 0.89870 0.13955 0.01600
N 	N 	0.52174 0.95267 0.16264 -0.08700
C 	C 	0.56306 0.97009 0.11953 0.02400
C 	C 	0.55003 0.93135 0.05431 -0.07100
C 	C 	0.48913 0.83503 0.97231 -0.08200
C 	C 	0.49378 0.79442 0.94824 0.04700
C 	C 	0.51501 0.76563 0.96469 -0.07300
C 	C 	0.54332 0.76395 0.00011 0.04400
C 	C 	0.58116 0.76448 0.03661 0.01100
C 	C 	0.62848 0.77985 0.34174 -0.07900
C 	C 	0.66510 0.77702 0.37354 0.04400
C 	C 	0.65456 0.75923 0.10026 -0.07400
C 	C 	0.60962 0.74989 0.13198 0.01600
C 	C 	0.57272 0.75264 0.09986 -0.05000
H 	H 	0.42304 0.81959 0.05591 0.09200
H 	H 	0.58049 0.93794 0.02110 0.07900
H 	H 	0.63597 0.79203 0.29457 0.06700
H 	H 	0.70079 0.78692 0.35001 0.04700
H 	H 	0.60225 0.73837 0.17976 0.04100
H 	H 	0.53738 0.74406 0.12354 0.05100
O 	O 	0.37090 0.82936 0.46833 -0.52000
O 	O 	0.41528 0.87149 0.57234 -0.47200
O 	O 	0.32372 0.72242 0.76366 -0.53000
Mg	Mg	0.33893 0.82375 0.60539 1.46000
Mg	Mg	0.72998 0.09326 0.75140 1.46100
C 	C 	0.69173 0.75319 0.46402 0.31900
In	In	0.28916 0.76368 0.47748 2.02000
In	In	0.73311 0.15009 0.55071 2.02000
C 	C 	0.25877 0.04709 0.51319 0.30700
O 	O 	0.25050 0.08593 0.55574 -0.51500
O 	O 	0.31015 0.69616 0.58912 -0.52800
O 	O 	0.34082 0.78485 0.67230 -0.49600
O 	O 	0.27330 0.74498 0.56120 -0.91700
C 	C 	0.41735 0.86907 0.50806 0.31000
C 	C 	0.32598 0.72715 0.65215 0.22000
O 	O 	0.69674 0.76480 0.53032 -0.27200
O 	O 	0.72607 0.74796 0.76162 -0.50800
C 	C 	0.31054 0.69238 0.70046 0.23000
O 	O 	0.31299 0.87872 0.60983 -0.48300
O 	O 	0.29380 0.84947 0.49580 -0.46500
C 	C 	0.62287 0.02734 0.46481 0.29300
O 	O 	0.63687 0.14997 0.52624 -0.27300
O 	O 	0.68608 0.66054 0.61539 -0.51200
C 	C 	0.29935 0.88720 0.55498 0.29800
O 	O 	0.64914 0.03696 0.74377 -0.49200
O 	O 	0.65116 0.06375 0.52473 -0.47100
C 	C 	0.64376 0.15441 0.59051 0.32300
C 	C 	0.32714 0.03943 0.64990 0.03300
C 	C 	0.31022 0.05763 0.60727 -0.06100
C 	C 	0.28179 0.01900 0.54489 -0.00400
N 	N 	0.27650 0.96224 0.52333 -0.08000
C 	C 	0.29824 0.94516 0.56539 0.00600
C 	C 	0.32302 0.98542 0.62895 -0.03800
C 	C 	0.35870 0.08118 0.71144 -0.02500
C 	C 	0.39170 0.10006 0.75646 0.00200
C 	C 	0.43920 0.10719 0.76968 0.00100
C 	C 	0.47600 0.10646 0.74903 -0.03700
C 	C 	0.51360 0.10825 0.70467 0.05700
C 	C 	0.55431 0.10556 0.72591 -0.08000
C 	C 	0.59674 0.61972 0.68754 0.04500
C 	C 	0.59799 0.63612 0.62796 -0.09500
C 	C 	0.55412 0.13234 0.60349 0.03300
C 	C 	0.51182 0.11830 0.64177 -0.07900
H 	H 	0.32221 0.10431 0.62211 0.07800
H 	H 	0.34192 0.97681 0.66321 0.06300
H 	H 	0.55432 0.09514 0.77298 0.07100
H 	H 	0.62933 0.61997 0.70578 0.04600
H 	H 	0.55350 0.14290 0.55640 0.03400
H 	H 	0.47939 0.11861 0.62381 0.05600
C 	C 	0.49855 0.88150 0.36400 0.05000
C 	C 	0.46000 0.86443 0.40690 -0.06500
C 	C 	0.46937 0.89897 0.47284 0.00700
N 	N 	0.52181 0.95296 0.49588 -0.08500
C 	C 	0.56311 0.97042 0.45276 0.01500
C 	C 	0.55005 0.93176 0.38747 -0.05200
C 	C 	0.48931 0.83540 0.30560 -0.02100
C 	C 	0.49394 0.79468 0.28172 0.00100
C 	C 	0.51517 0.76609 0.29840 0.00500
C 	C 	0.54345 0.76420 0.33365 -0.03400
C 	C 	0.58145 0.76519 0.37044 0.05900
C 	C 	0.62739 0.77938 0.67687 -0.07900
C 	C 	0.66438 0.77670 0.70832 0.04300
C 	C 	0.65492 0.75987 0.43381 -0.09300
C 	C 	0.61012 0.75077 0.46572 0.03300
C 	C 	0.57324 0.75355 0.43352 -0.07700
H 	H 	0.42332 0.81960 0.38947 0.08100
H 	H 	0.58047 0.93839 0.35421 0.06600
H 	H 	0.63494 0.79137 0.62933 0.06600
H 	H 	0.70010 0.78683 0.68494 0.04800
H 	H 	0.60283 0.73941 0.51355 0.03600
H 	H 	0.53794 0.74511 0.45743 0.05700
O 	O 	0.37096 0.82944 0.80159 -0.52100
O 	O 	0.41506 0.87156 0.90581 -0.47900
O 	O 	0.32339 0.72208 0.09704 -0.53700
Mg	Mg	0.33859 0.82380 0.93871 1.45800
Mg	Mg	0.72993 0.09316 0.08487 1.46200
C 	C 	0.69128 0.75292 0.79864 0.32000
In	In	0.28921 0.76372 0.81034 2.02000
In	In	0.73309 0.15010 0.88387 2.01900
C 	C 	0.25845 0.04695 0.84614 0.30800
O 	O 	0.25016 0.08574 0.88878 -0.52100
O 	O 	0.30994 0.69631 0.92260 -0.52000
O 	O 	0.33997 0.78477 0.00586 -0.46400
O 	O 	0.27330 0.74506 0.89399 -0.92300
C 	C 	0.41731 0.86915 0.84154 0.31000
C 	C 	0.32538 0.72717 0.98568 0.16400
O 	O 	0.69665 0.76467 0.86486 -0.27600
O 	O 	0.72644 0.74792 0.09408 -0.50200
C 	C 	0.31001 0.69223 0.03381 0.26700
O 	O 	0.31241 0.87849 0.94271 -0.49100
O 	O 	0.29391 0.84955 0.82858 -0.46600
C 	C 	0.62283 0.02738 0.79807 0.29300
O 	O 	0.63664 0.14962 0.85911 -0.27700
O 	O 	0.68562 0.66009 0.94867 -0.52500
C 	C 	0.29909 0.88710 0.88772 0.30100
O 	O 	0.64911 0.03674 0.07728 -0.48700
O 	O 	0.65118 0.06372 0.85796 -0.47400
C 	C 	0.64359 0.15428 0.92343 0.33700
C 	C 	0.32740 0.03958 0.98243 -0.01400
C 	C 	0.31023 0.05767 0.93996 -0.04400
C 	C 	0.28160 0.01893 0.87771 -0.01200
N 	N 	0.27622 0.96213 0.85614 -0.07900
C 	C 	0.29822 0.94518 0.89800 -0.00300
C 	C 	0.32339 0.98566 0.96136 -0.02200
C 	C 	0.35885 0.08125 0.04406 0.02300
C 	C 	0.39172 0.10004 0.08920 -0.02200
C 	C 	0.43913 0.10707 0.10268 0.02800
C 	C 	0.47593 0.10631 0.08213 -0.05900
C 	C 	0.51350 0.10806 0.03771 0.11200
C 	C 	0.55425 0.10543 0.05891 -0.11500
C 	C 	0.59630 0.61922 0.02093 0.09900
C 	C 	0.59740 0.63534 0.96119 -0.14700
C 	C 	0.55392 0.13212 0.93647 0.06400
C 	C 	0.51165 0.11807 0.97480 -0.13400
H 	H 	0.32213 0.10432 0.95484 0.06500
H 	H 	0.34259 0.97718 0.99538 0.05000
H 	H 	0.55434 0.09507 0.10600 0.08100
H 	H 	0.62896 0.61960 0.03920 0.03700
H 	H 	0.55325 0.14265 0.88937 0.02500
H 	H 	0.47918 0.11834 0.95687 0.06400
C 	C 	0.49848 0.88119 0.69760 0.04900
C 	C 	0.46011 0.86401 0.74070 -0.06400
C 	C 	0.46942 0.89889 0.80643 0.00500
N 	N 	0.52180 0.95305 0.82928 -0.08600
C 	C 	0.56306 0.97043 0.78609 0.01300
C 	C 	0.54995 0.93167 0.72081 -0.05100
C 	C 	0.48917 0.83481 0.63928 -0.02100
C 	C 	0.49215 0.79321 0.61667 0.00100
C 	C 	0.51457 0.76519 0.63383 0.00500
C 	C 	0.53990 0.76038 0.66959 -0.03400
C 	C 	0.58104 0.76530 0.70528 0.05900
C 	C 	0.62821 0.77943 0.00839 -0.01800
C 	C 	0.66486 0.77658 0.04009 0.01800
C 	C 	0.65427 0.75940 0.76864 -0.09300
C 	C 	0.60947 0.74999 0.80045 0.03300
C 	C 	0.57244 0.75284 0.76888 -0.07800
H 	H 	0.42348 0.81906 0.72347 0.08100
H 	H 	0.58036 0.93831 0.68752 0.06600
H 	H 	0.63595 0.79197 0.96132 0.03500
H 	H 	0.70064 0.78672 0.01674 0.06300
H 	H 	0.60205 0.73829 0.84822 0.03500
H 	H 	0.53719 0.74411 0.79238 0.05700
O 	O 	0.77099 0.63290 0.34890 -0.49500
O 	O 	0.23843 0.66861 0.13452 -0.92400
In	In	0.23312 0.64986 0.21752 2.02000
C 	C 	0.75860 0.54686 0.17961 0.30500
O 	O 	0.75038 0.58571 0.22224 -0.51400
O 	O 	0.75654 0.54550 0.11558 -0.46400
O 	O 	0.22638 0.24798 0.42784 -0.50900
N 	N 	0.77627 0.46195 0.18972 -0.08600
O 	O 	0.77058 0.63281 0.68210 -0.49500
O 	O 	0.23831 0.66884 0.46766 -0.92500
In	In	0.23305 0.65005 0.55067 2.02000
C 	C 	0.75874 0.54703 0.51295 0.30500
O 	O 	0.75044 0.58586 0.55547 -0.51400
O 	O 	0.75678 0.54567 0.44892 -0.46900
O 	O 	0.22608 0.24806 0.76136 -0.50800
N 	N 	0.77646 0.46221 0.52321 -0.08700
O 	O 	0.77056 0.63279 0.01550 -0.49100
O 	O 	0.23842 0.66893 0.80063 -0.92600
In	In	0.23303 0.65020 0.88366 2.01900
C 	C 	0.75829 0.54670 0.84596 0.30700
O 	O 	0.75009 0.58558 0.88859 -0.52000
O 	O 	0.75629 0.54536 0.78194 -0.46900
O 	O 	0.22637 0.24788 0.09440 -0.50200
N 	N 	0.77601 0.46180 0.85604 -0.08500
O 	O 	0.77105 0.13306 0.34907 -0.49600
O 	O 	0.23826 0.16857 0.13442 -0.92400
In	In	0.23294 0.14983 0.21745 2.02000
C 	C 	0.75876 0.04699 0.17969 0.30600
O 	O 	0.75052 0.08584 0.22230 -0.51500
O 	O 	0.75673 0.04563 0.11565 -0.46700
O 	O 	0.22667 0.74826 0.42739 -0.50800
N 	N 	0.77633 0.96201 0.18980 -0.07900
O 	O 	0.77105 0.13313 0.68220 -0.49600
O 	O 	0.23831 0.16876 0.46777 -0.92500
In	In	0.23298 0.15000 0.55079 2.02000
C 	C 	0.75886 0.04714 0.51305 0.30700
O 	O 	0.75062 0.08599 0.55564 -0.51500
O 	O 	0.75680 0.04574 0.44902 -0.47100
O 	O 	0.22681 0.74832 0.76010 -0.50900
N 	N 	0.77651 0.96221 0.52306 -0.08000
O 	O 	0.77083 0.13304 0.01558 -0.49100
O 	O 	0.23802 0.16872 0.80090 -0.92500
In	In	0.23268 0.14987 0.88390 2.01900
C 	C 	0.75878 0.04709 0.84622 0.30800
O 	O 	0.75061 0.08602 0.88879 -0.52100
O 	O 	0.75667 0.04561 0.78216 -0.47200
O 	O 	0.22623 0.74786 0.09537 -0.50300
N 	N 	0.77639 0.96212 0.85628 -0.07900
O 	O 	0.73819 0.66861 0.13438 -0.92300
O 	O 	0.73834 0.66875 0.46743 -0.92500
O 	O 	0.73805 0.66860 0.80083 -0.92500
O 	O 	0.73838 0.16870 0.13441 -0.92400
O 	O 	0.73837 0.16886 0.46770 -0.92500
O 	O 	0.73845 0.16883 0.80084 -0.92600
O 	O 	0.81005 0.19610 0.25616 -0.52800
C 	C 	0.82571 0.22712 0.31919 0.22000
C 	C 	0.81044 0.19235 0.36746 0.23100
C 	C 	0.78168 0.51877 0.21123 0.00900
O 	O 	0.81018 0.19622 0.58923 -0.52800
C 	C 	0.82595 0.22720 0.65226 0.22000
C 	C 	0.81053 0.19239 0.70054 0.23000
C 	C 	0.78180 0.51900 0.54468 0.00700
O 	O 	0.81008 0.19624 0.92269 -0.51900
C 	C 	0.82567 0.22718 0.98574 0.16400
C 	C 	0.81030 0.19232 0.03396 0.26700
C 	C 	0.78124 0.51852 0.87763 -0.00200
O 	O 	0.80996 0.69593 0.25594 -0.52800
C 	C 	0.82571 0.72695 0.31896 0.22000
C 	C 	0.81041 0.69219 0.36725 0.23000
C 	C 	0.78173 0.01883 0.21135 -0.00300
O 	O 	0.80993 0.69599 0.58927 -0.52800
C 	C 	0.82544 0.72694 0.65232 0.22000
C 	C 	0.81000 0.69210 0.70054 0.23100
C 	C 	0.78187 0.01900 0.54467 -0.00400
O 	O 	0.80975 0.69588 0.92254 -0.51900
C 	C 	0.82546 0.72686 0.98558 0.16300
C 	C 	0.81003 0.69206 0.03384 0.26800
C 	C 	0.78168 0.01887 0.87791 -0.01300
O 	O 	0.25675 0.54556 0.11558 -0.46400
O 	O 	0.25664 0.54561 0.44900 -0.46800
O 	O 	0.25664 0.54572 0.78210 -0.46900
O 	O 	0.25654 0.04542 0.11557 -0.46600
O 	O 	0.25674 0.04568 0.44915 -0.47100
O 	O 	0.25649 0.04568 0.78214 -0.47200
C 	C 	0.79908 0.38690 0.22143 0.29700
C 	C 	0.79802 0.44487 0.23177 0.00900
C 	C 	0.79929 0.38720 0.55493 0.29700
C 	C 	0.79829 0.44522 0.56525 0.00800
C 	C 	0.79900 0.38689 0.88781 0.29900
C 	C 	0.79768 0.44470 0.89820 -0.00100
C 	C 	0.79902 0.88686 0.22149 0.29900
C 	C 	0.79790 0.94481 0.23193 0.00600
C 	C 	0.79925 0.88706 0.55465 0.29900
C 	C 	0.79819 0.94505 0.56509 0.00500
C 	C 	0.79915 0.88699 0.88794 0.30000
C 	C 	0.79798 0.94491 0.89839 -0.00300
O 	O 	0.84032 0.28472 0.33927 -0.49700
O 	O 	0.77326 0.24480 0.22778 -0.91800
O 	O 	0.81262 0.37840 0.27635 -0.48400
O 	O 	0.79371 0.34924 0.16229 -0.46400
O 	O 	0.84072 0.28487 0.67240 -0.49700
O 	O 	0.77328 0.24499 0.56115 -0.91700
O 	O 	0.81288 0.37872 0.60983 -0.48400
O 	O 	0.79380 0.34948 0.49578 -0.46600
O 	O 	0.84038 0.28483 0.00587 -0.46400
O 	O 	0.77339 0.24497 0.89423 -0.92300
O 	O 	0.81257 0.37843 0.94273 -0.49200
O 	O 	0.79368 0.34928 0.82866 -0.46700
O 	O 	0.84036 0.78458 0.33908 -0.49700
O 	O 	0.77315 0.74471 0.22774 -0.91800
O 	O 	0.81258 0.87833 0.27637 -0.48300
O 	O 	0.79356 0.84918 0.16232 -0.46300
O 	O 	0.83997 0.78452 0.67241 -0.49700
O 	O 	0.77328 0.74487 0.56084 -0.91800
O 	O 	0.81270 0.87846 0.60954 -0.48300
O 	O 	0.79388 0.84943 0.49547 -0.46500
O 	O 	0.84031 0.78457 0.00571 -0.46300
O 	O 	0.77317 0.74477 0.89444 -0.92300
O 	O 	0.81277 0.87849 0.94281 -0.49200
O 	O 	0.79356 0.84922 0.82877 -0.46600
O 	O 	0.27110 0.63302 0.34916 -0.49500
O 	O 	0.27105 0.63312 0.68212 -0.49500
O 	O 	0.27061 0.63293 0.01541 -0.49000
O 	O 	0.27091 0.13294 0.34911 -0.49600
O 	O 	0.27075 0.13303 0.68234 -0.49600
O 	O 	0.27060 0.13275 0.01550 -0.49100
O 	O 	0.87090 0.32915 0.13517 -0.51900
O 	O 	0.91513 0.37132 0.23929 -0.47300
O 	O 	0.82360 0.22232 0.43068 -0.53000
Mg	Mg	0.83869 0.32360 0.27219 1.46000
Mg	Mg	0.22995 0.59326 0.41831 1.46100
C 	C 	0.19148 0.25281 0.13125 0.31300
In	In	0.78915 0.26350 0.14411 2.02000
C 	C 	0.91729 0.36883 0.17497 0.30900
O 	O 	0.19661 0.26444 0.19738 -0.27100
C 	C 	0.12283 0.52706 0.13167 0.30100
O 	O 	0.13640 0.64895 0.19269 -0.27200
O 	O 	0.18587 0.16018 0.28232 -0.51200
O 	O 	0.14913 0.53686 0.41049 -0.49100
O 	O 	0.15124 0.56336 0.19159 -0.47000
C 	C 	0.14342 0.65370 0.25704 0.32400
C 	C 	0.82708 0.53924 0.31620 0.04900
C 	C 	0.81024 0.55748 0.27352 -0.06900
C 	C 	0.82283 0.48516 0.29532 -0.05400
C 	C 	0.85863 0.58095 0.37776 -0.02900
C 	C 	0.89155 0.59968 0.42281 0.00400
C 	C 	0.93892 0.60658 0.43616 0.00400
C 	C 	0.97573 0.60581 0.41565 -0.04400
C 	C 	0.01330 0.60744 0.37130 0.06400
C 	C 	0.05429 0.60535 0.39284 -0.08100
C 	C 	0.09653 0.11938 0.35460 0.04500
C 	C 	0.09769 0.13555 0.29488 -0.09500
C 	C 	0.05354 0.63096 0.26983 0.03200
C 	C 	0.01126 0.61692 0.30813 -0.07200
H 	H 	0.82234 0.60421 0.28827 0.08000
H 	H 	0.84167 0.47651 0.32962 0.06400
H 	H 	0.05454 0.59544 0.44017 0.07300
H 	H 	0.12915 0.11970 0.37286 0.04500
H 	H 	0.05264 0.64093 0.22243 0.03600
H 	H 	0.97861 0.61675 0.28995 0.05200
C 	C 	0.99856 0.38101 0.03104 0.08600
C 	C 	0.96000 0.36397 0.07394 -0.07700
C 	C 	0.96936 0.39862 0.13981 0.00700
N 	N 	0.02178 0.45267 0.16282 -0.08300
C 	C 	0.06309 0.47006 0.11971 0.01100
C 	C 	0.05005 0.43134 0.05447 -0.05800
C 	C 	0.98931 0.33491 0.97262 -0.07400
C 	C 	0.99333 0.29370 0.94902 0.03000
C 	C 	0.01423 0.26474 0.96576 -0.05600
C 	C 	0.04267 0.26322 0.00126 0.03500
C 	C 	0.08078 0.26413 0.03758 0.01700
C 	C 	0.12798 0.27927 0.34223 -0.08100
C 	C 	0.16475 0.27658 0.37396 0.04400
C 	C 	0.15445 0.25919 0.10104 -0.07600
C 	C 	0.10965 0.24982 0.13286 0.01800
C 	C 	0.07253 0.25242 0.10100 -0.05300
H 	H 	0.92326 0.31918 0.05645 0.09000
H 	H 	0.08048 0.43800 0.02120 0.07400
H 	H 	0.13557 0.29150 0.29499 0.06700
H 	H 	0.20048 0.28663 0.35057 0.04700
H 	H 	0.10237 0.23831 0.18070 0.04000
H 	H 	0.03729 0.24384 0.12479 0.05300
O 	O 	0.87086 0.32933 0.46834 -0.52100
O 	O 	0.91520 0.37151 0.57239 -0.47400
O 	O 	0.82375 0.22240 0.76375 -0.53000
Mg	Mg	0.83884 0.32376 0.60545 1.46000
Mg	Mg	0.22995 0.59332 0.75132 1.46100
C 	C 	0.19145 0.25288 0.46453 0.31900
In	In	0.78914 0.26367 0.47743 2.02000
C 	C 	0.91729 0.36906 0.50811 0.31100
O 	O 	0.19656 0.26458 0.53077 -0.27200
C 	C 	0.12280 0.52727 0.46475 0.30300
O 	O 	0.13674 0.64982 0.52624 -0.27300
O 	O 	0.18598 0.16035 0.61581 -0.51200
O 	O 	0.14911 0.53697 0.74373 -0.49100
O 	O 	0.15111 0.56367 0.52465 -0.47100
C 	C 	0.14365 0.65427 0.59050 0.32400
C 	C 	0.82738 0.53964 0.64959 0.04800
C 	C 	0.81033 0.55773 0.60698 -0.06800
C 	C 	0.82326 0.48563 0.62870 -0.05400
C 	C 	0.85895 0.58147 0.71110 -0.02900
C 	C 	0.89190 0.60058 0.75629 0.00300
C 	C 	0.93947 0.60803 0.76996 0.00400
C 	C 	0.97631 0.60730 0.74951 -0.04500
C 	C 	0.01386 0.60897 0.70512 0.06400
C 	C 	0.05448 0.60610 0.72628 -0.08100
C 	C 	0.09663 0.11940 0.68810 0.04600
C 	C 	0.09780 0.13570 0.62847 -0.09500
C 	C 	0.05410 0.63244 0.60364 0.03200
C 	C 	0.01197 0.61879 0.64212 -0.07200
H 	H 	0.82227 0.60440 0.62177 0.08000
H 	H 	0.84227 0.47708 0.66291 0.06400
H 	H 	0.05450 0.59570 0.77336 0.07300
H 	H 	0.12927 0.11973 0.70633 0.04500
H 	H 	0.05337 0.64277 0.55643 0.03600
H 	H 	0.97956 0.61915 0.62419 0.05100
C 	C 	0.99850 0.38122 0.36416 0.03300
C 	C 	0.95995 0.36422 0.40701 -0.05700
C 	C 	0.96932 0.39889 0.47289 -0.00300
N 	N 	0.02175 0.45293 0.49586 -0.08000
C 	C 	0.06305 0.47029 0.45275 0.00200
C 	C 	0.05001 0.43148 0.38753 -0.03800
C 	C 	0.98918 0.33494 0.30575 -0.01300
C 	C 	0.99332 0.29392 0.28220 -0.01400
C 	C 	0.01445 0.26503 0.29890 0.01800
C 	C 	0.04292 0.26361 0.33415 -0.04000
C 	C 	0.08102 0.26441 0.37067 0.06300
C 	C 	0.12731 0.27905 0.67618 -0.08200
C 	C 	0.16419 0.27655 0.70786 0.04400
C 	C 	0.15452 0.25935 0.43427 -0.09300
C 	C 	0.10968 0.25007 0.46602 0.03400
C 	C 	0.07269 0.25277 0.43392 -0.07900
H 	H 	0.92324 0.31941 0.38962 0.07800
H 	H 	0.08046 0.43806 0.35434 0.06100
H 	H 	0.13469 0.29116 0.62891 0.06700
H 	H 	0.19993 0.28670 0.68433 0.04700
H 	H 	0.10231 0.23858 0.51383 0.03600
H 	H 	0.03742 0.24425 0.45769 0.06000
O 	O 	0.87094 0.32943 0.80166 -0.52200
O 	O 	0.91517 0.37148 0.90579 -0.48100
O 	O 	0.82360 0.22226 0.09717 -0.53700
Mg	Mg	0.83877 0.32374 0.93874 1.45800
Mg	Mg	0.22990 0.59307 0.08482 1.46200
C 	C 	0.19123 0.25301 0.79827 0.32000
In	In	0.78921 0.26362 0.81054 2.02000
C 	C 	0.91733 0.36911 0.84150 0.31100
O 	O 	0.19649 0.26472 0.86446 -0.27600
C 	C 	0.12276 0.52744 0.79798 0.30300
O 	O 	0.13701 0.65019 0.85852 -0.27700
O 	O 	0.18561 0.16015 0.94883 -0.52500
O 	O 	0.14907 0.53676 0.07738 -0.48600
O 	O 	0.15107 0.56390 0.85790 -0.47400
C 	C 	0.14387 0.65501 0.92291 0.33700
C 	C 	0.82628 0.53882 0.98279 0.00000
C 	C 	0.80956 0.55709 0.94005 -0.05100
C 	C 	0.82220 0.48485 0.96188 -0.03700
C 	C 	0.85786 0.58064 0.04427 0.02000
C 	C 	0.89104 0.59968 0.08910 -0.02000
C 	C 	0.93876 0.60712 0.10163 0.03000
C 	C 	0.97561 0.60669 0.08063 -0.06500
C 	C 	0.01341 0.60881 0.03646 0.11600
C 	C 	0.05411 0.60622 0.05795 -0.11400
C 	C 	0.09627 0.11924 0.02107 0.09700
C 	C 	0.09741 0.13546 0.96139 -0.14500
C 	C 	0.05436 0.63338 0.93564 0.06100
C 	C 	0.01186 0.61909 0.97363 -0.12500
H 	H 	0.82167 0.60383 0.95481 0.06700
H 	H 	0.84103 0.47623 0.99625 0.05100
H 	H 	0.05407 0.59583 0.10507 0.08200
H 	H 	0.12890 0.11957 0.03931 0.03700
H 	H 	0.05397 0.64420 0.88866 0.02700
H 	H 	0.97947 0.61941 0.95552 0.05800
C 	C 	0.99847 0.38116 0.69751 0.03100
C 	C 	0.96007 0.36397 0.74064 -0.05600
C 	C 	0.96939 0.39885 0.80635 -0.00500
N 	N 	0.02176 0.45304 0.82920 -0.08200
C 	C 	0.06301 0.47046 0.78600 0.00100
C 	C 	0.04992 0.43172 0.72074 -0.03600
C 	C 	0.98926 0.33506 0.63915 -0.01200
C 	C 	0.99257 0.29319 0.61608 -0.01600
C 	C 	0.01335 0.26430 0.63313 0.01900
C 	C 	0.04199 0.26278 0.66836 -0.04100
C 	C 	0.08029 0.26415 0.70485 0.06300
C 	C 	0.12771 0.27907 0.00923 -0.02200
C 	C 	0.16460 0.27647 0.04072 0.02000
C 	C 	0.15419 0.25937 0.76811 -0.09400
C 	C 	0.10931 0.24995 0.80007 0.03400
C 	C 	0.07225 0.25254 0.76808 -0.08000
H 	H 	0.92345 0.31899 0.72341 0.07800
H 	H 	0.08030 0.43842 0.68737 0.06100
H 	H 	0.13524 0.29141 0.96197 0.03700
H 	H 	0.20029 0.28660 0.01725 0.06200
H 	H 	0.10210 0.23849 0.84785 0.03500
H 	H 	0.03694 0.24392 0.79198 0.05900
O 	O 	0.87072 0.82917 0.13511 -0.51900
O 	O 	0.91499 0.87127 0.23921 -0.47200
O 	O 	0.82358 0.72219 0.43046 -0.53000
Mg	Mg	0.83861 0.82348 0.27211 1.46000
Mg	Mg	0.22995 0.09322 0.41838 1.46100
C 	C 	0.19147 0.75275 0.13250 0.31300
In	In	0.78898 0.76341 0.14405 2.02000
C 	C 	0.91712 0.86889 0.17494 0.30900
O 	O 	0.19687 0.76439 0.19870 -0.27100
C 	C 	0.12266 0.02710 0.13165 0.29200
O 	O 	0.13652 0.14947 0.19291 -0.27300
O 	O 	0.18591 0.66008 0.28225 -0.51100
O 	O 	0.14915 0.03682 0.41061 -0.49300
O 	O 	0.15102 0.06346 0.19155 -0.47000
C 	C 	0.14347 0.15403 0.25720 0.32300
C 	C 	0.82684 0.03909 0.31646 0.03200
C 	C 	0.81016 0.05744 0.27373 -0.06100
C 	C 	0.82251 0.98495 0.29560 -0.03800
C 	C 	0.85842 0.08079 0.37801 -0.02400
C 	C 	0.89138 0.09955 0.42303 -0.00100
C 	C 	0.93881 0.10657 0.43630 0.00500
C 	C 	0.97566 0.10589 0.41574 -0.04700
C 	C 	0.01328 0.10769 0.37140 0.06400
C 	C 	0.05417 0.10535 0.39280 -0.08200
C 	C 	0.09665 0.61937 0.35463 0.04600
C 	C 	0.09767 0.63525 0.29475 -0.09400
C 	C 	0.05368 0.13158 0.27011 0.03100
C 	C 	0.01138 0.11748 0.30839 -0.07300
H 	H 	0.82230 0.10418 0.28851 0.07800
H 	H 	0.84117 0.97618 0.33000 0.06300
H 	H 	0.05433 0.09521 0.44001 0.07200
H 	H 	0.12937 0.61992 0.37302 0.04600
H 	H 	0.05292 0.14189 0.22290 0.03600
H 	H 	0.97882 0.11753 0.29032 0.05100
C 	C 	0.99838 0.88103 0.03111 0.08900
C 	C 	0.95983 0.86407 0.07395 -0.07900
C 	C 	0.96919 0.89874 0.13980 0.00900
N 	N 	0.02161 0.95278 0.16279 -0.08300
C 	C 	0.06292 0.97010 0.11970 0.02100
C 	C 	0.04990 0.93125 0.05450 -0.06100
C 	C 	0.98904 0.83456 0.97292 -0.07400
C 	C 	0.99237 0.79280 0.95052 0.03100
C 	C 	0.01358 0.76419 0.96801 -0.05600
C 	C 	0.04256 0.76369 0.00348 0.03600
C 	C 	0.08097 0.76480 0.03972 0.01700
C 	C 	0.12775 0.77923 0.34194 -0.08000
C 	C 	0.16471 0.77668 0.37343 0.04400
C 	C 	0.15454 0.75947 0.10273 -0.07600
C 	C 	0.10976 0.75013 0.13467 0.01800
C 	C 	0.07284 0.75316 0.10299 -0.05300
H 	H 	0.92309 0.81929 0.05651 0.09100
H 	H 	0.08039 0.93770 0.02143 0.07700
H 	H 	0.13532 0.79175 0.29480 0.06700
H 	H 	0.20039 0.78682 0.34992 0.04800
H 	H 	0.10233 0.73820 0.18224 0.04000
H 	H 	0.03755 0.74453 0.12685 0.05300
O 	O 	0.87087 0.82926 0.46818 -0.52000
O 	O 	0.91511 0.87121 0.57229 -0.47300
O 	O 	0.82320 0.72201 0.76376 -0.53100
Mg	Mg	0.83869 0.82358 0.60531 1.46000
Mg	Mg	0.22968 0.09319 0.75148 1.46100
C 	C 	0.19164 0.75313 0.46407 0.31800
In	In	0.78915 0.76357 0.47721 2.02000
C 	C 	0.91727 0.86888 0.50801 0.31100
O 	O 	0.19664 0.76466 0.53019 -0.27300
C 	C 	0.12278 0.02724 0.46484 0.29500
O 	O 	0.13660 0.14972 0.52651 -0.27300
O 	O 	0.18601 0.66034 0.61560 -0.51200
O 	O 	0.14887 0.03670 0.74367 -0.49300
O 	O 	0.15105 0.06366 0.52476 -0.47100
C 	C 	0.14358 0.15424 0.59078 0.32400
C 	C 	0.82712 0.03929 0.64968 0.03100
C 	C 	0.81034 0.05761 0.60704 -0.06000
C 	C 	0.82289 0.98522 0.62872 -0.03700
C 	C 	0.85860 0.08091 0.71132 -0.02400
C 	C 	0.89148 0.09953 0.75639 -0.00100
C 	C 	0.93882 0.10637 0.76975 0.00500
C 	C 	0.97566 0.10566 0.74925 -0.04700
C 	C 	0.01330 0.10752 0.70490 0.06400
C 	C 	0.05420 0.10518 0.72624 -0.08200
C 	C 	0.09669 0.61973 0.68791 0.04600
C 	C 	0.09793 0.63600 0.62824 -0.09400
C 	C 	0.05378 0.13171 0.60373 0.03100
C 	C 	0.01143 0.11745 0.64196 -0.07200
H 	H 	0.82242 0.10433 0.62188 0.07700
H 	H 	0.84165 0.97648 0.66303 0.06300
H 	H 	0.05429 0.09484 0.77333 0.07200
H 	H 	0.12913 0.61965 0.70598 0.04600
H 	H 	0.05305 0.14214 0.55659 0.03600
H 	H 	0.97886 0.11750 0.62392 0.05000
C 	C 	0.99864 0.88118 0.36412 0.03600
C 	C 	0.96002 0.86407 0.40692 -0.05800
C 	C 	0.96932 0.89871 0.47283 -0.00100
N 	N 	0.02171 0.95278 0.49587 -0.08000
C 	C 	0.06305 0.97024 0.45280 0.01200
C 	C 	0.05008 0.93151 0.38757 -0.04100
C 	C 	0.98954 0.83514 0.30559 -0.01300
C 	C 	0.99425 0.79464 0.28144 -0.01200
C 	C 	0.01486 0.76517 0.29794 0.01700
C 	C 	0.04276 0.76344 0.33390 -0.03900
C 	C 	0.08077 0.76400 0.37015 0.06300
C 	C 	0.12973 0.78072 0.67335 -0.08200
C 	C 	0.16593 0.77748 0.70540 0.04500
C 	C 	0.15461 0.75943 0.43372 -0.09300
C 	C 	0.10973 0.74994 0.46552 0.03400
C 	C 	0.07251 0.75236 0.43361 -0.07900
H 	H 	0.92332 0.81925 0.38945 0.07900
H 	H 	0.08053 0.93822 0.35433 0.06400
H 	H 	0.13758 0.79298 0.62618 0.06800
H 	H 	0.20166 0.78707 0.68214 0.04700
H 	H 	0.10245 0.73840 0.51331 0.03600
H 	H 	0.03730 0.74377 0.45743 0.06000
O 	O 	0.87056 0.82920 0.80158 -0.52100
O 	O 	0.91503 0.87115 0.90553 -0.48000
O 	O 	0.82334 0.72205 0.09705 -0.53700
Mg	Mg	0.83870 0.82353 0.93866 1.45800
Mg	Mg	0.22975 0.09299 0.08487 1.46200
C 	C 	0.19180 0.75337 0.79633 0.32000
In	In	0.78887 0.76342 0.81077 2.02000
C 	C 	0.91703 0.86884 0.84127 0.31100
O 	O 	0.19652 0.76490 0.86264 -0.27500
C 	C 	0.12250 0.02710 0.79789 0.29500
O 	O 	0.13632 0.14960 0.85950 -0.27700
O 	O 	0.18605 0.66090 0.94828 -0.52500
O 	O 	0.14893 0.03670 0.07735 -0.48700
O 	O 	0.15076 0.06352 0.85782 -0.47400
C 	C 	0.14322 0.15403 0.92375 0.33600
C 	C 	0.82673 0.03905 0.98305 -0.01500
C 	C 	0.80999 0.05739 0.94038 -0.04400
C 	C 	0.82255 0.98502 0.96208 -0.02100
C 	C 	0.85821 0.08071 0.04466 0.02400
C 	C 	0.89116 0.09943 0.08969 -0.02500
C 	C 	0.93858 0.10639 0.10289 0.03100
C 	C 	0.97539 0.10568 0.08227 -0.06700
C 	C 	0.01299 0.10746 0.03789 0.11600
C 	C 	0.05389 0.10515 0.05926 -0.11500
C 	C 	0.09658 0.62029 0.01998 0.09800
C 	C 	0.09808 0.63684 0.96044 -0.14400
C 	C 	0.05339 0.13145 0.93662 0.06100
C 	C 	0.01107 0.11728 0.97489 -0.12500
H 	H 	0.82205 0.10409 0.95526 0.06500
H 	H 	0.84129 0.97629 0.99643 0.05000
H 	H 	0.05407 0.09498 0.10645 0.08200
H 	H 	0.12900 0.62028 0.03828 0.03800
H 	H 	0.05263 0.14179 0.88944 0.02700
H 	H 	0.97850 0.11731 0.95684 0.05700
C 	C 	0.99809 0.88139 0.69709 0.03400
C 	C 	0.95952 0.86442 0.73991 -0.05800
C 	C 	0.96901 0.89882 0.80595 -0.00300
N 	N 	0.02147 0.95272 0.82901 -0.08200
C 	C 	0.06274 0.97017 0.78585 0.01000
C 	C 	0.04964 0.93149 0.72054 -0.03900
C 	C 	0.98864 0.83517 0.63857 -0.01300
C 	C 	0.99447 0.79568 0.61368 -0.01400
C 	C 	0.01663 0.76760 0.62952 0.01800
C 	C 	0.04517 0.76614 0.66474 -0.04000
C 	C 	0.08267 0.76634 0.70155 0.06300
C 	C 	0.12791 0.77975 0.01109 -0.02200
C 	C 	0.16471 0.77697 0.04257 0.02000
C 	C 	0.15539 0.76036 0.76575 -0.09500
C 	C 	0.11061 0.75176 0.79735 0.03500
C 	C 	0.07409 0.75484 0.76481 -0.08000
H 	H 	0.92282 0.81966 0.72244 0.07800
H 	H 	0.08005 0.93813 0.68725 0.06400
H 	H 	0.13528 0.79172 0.96370 0.03700
H 	H 	0.20037 0.78701 0.01901 0.06200
H 	H 	0.10312 0.74065 0.84534 0.03500
H 	H 	0.03880 0.74675 0.78844 0.05900
