data_crystal

_cell_length_a 12.01780
_cell_length_b 12.01780
_cell_length_c 19.42500
_cell_angle_alpha 77.41860
_cell_angle_beta  77.41860
_cell_angle_gamma 77.68940

_symmetry_space_group_name_	'P 1'
_symmetry_space_group_name_H-M	'P 1'

loop_
_symmetry_equiv_pos_as_xyz
  x,y,z

loop_
_atom_site_label
_atom_site_type_symbol
_atom_site_fract_x
_atom_site_fract_y
_atom_site_fract_z
_atom_site_charge
Mn	Mn	0.67570 0.01804 0.32219 1.21800
Mn	Mn	0.98196 0.32430 0.17781 1.26500
Mn	Mn	0.32430 0.98196 0.67781 1.26900
Mn	Mn	0.01804 0.67570 0.82219 1.22100
Mn	Mn	0.50000 0.00000 0.50000 1.29400
Mn	Mn	-0.00000 0.50000 -0.00000 1.28100
H 	H 	0.78950 0.34230 0.40550 0.01800
H 	H 	0.69790 0.51430 0.45750 0.06800
H 	H 	0.29850 0.76630 0.43750 0.02900
H 	H 	0.20400 0.67260 0.37300 0.05800
H 	H 	0.75170 0.71490 0.58950 0.02600
H 	H 	0.89310 0.53570 0.60920 0.08700
H 	H 	0.65770 0.21050 0.09450 0.00400
H 	H 	0.48570 0.30210 0.04250 0.04600
H 	H 	0.23370 0.70150 0.06250 0.01100
H 	H 	0.32740 0.79600 0.12700 0.07400
H 	H 	0.28510 0.24830 0.91050 -0.00300
H 	H 	0.46430 0.10690 0.89080 0.06500
H 	H 	0.21050 0.65770 0.59450 0.00400
H 	H 	0.30210 0.48570 0.54250 0.06600
H 	H 	0.70150 0.23370 0.56250 0.02400
H 	H 	0.79600 0.32740 0.62700 0.07600
H 	H 	0.24830 0.28510 0.41050 0.02600
H 	H 	0.10690 0.46430 0.39080 0.03100
H 	H 	0.34230 0.78950 0.90550 0.01900
H 	H 	0.51430 0.69790 0.95750 0.08800
H 	H 	0.76630 0.29850 0.93750 0.04400
H 	H 	0.67260 0.20400 0.87300 0.06000
H 	H 	0.71490 0.75170 0.08950 0.05600
H 	H 	0.53570 0.89310 0.10920 0.05300
C 	C 	0.65940 0.17900 0.39570 0.36100
C 	C 	0.63330 0.28810 0.42670 -0.11600
C 	C 	0.71100 0.35820 0.42480 0.02600
C 	C 	0.65840 0.45700 0.45520 -0.09300
C 	C 	0.54060 0.45920 0.48150 0.01000
C 	C 	0.46220 0.90420 0.36580 0.43200
C 	C 	0.38540 0.84120 0.34490 -0.12800
C 	C 	0.31180 0.77560 0.38780 0.04100
C 	C 	0.25610 0.72210 0.35040 -0.09300
C 	C 	0.28650 0.75030 0.27840 0.00100
C 	C 	0.73930 0.83790 0.44950 0.41800
C 	C 	0.81170 0.72950 0.48120 -0.11700
C 	C 	0.80390 0.68310 0.55300 0.05300
C 	C 	0.88690 0.57910 0.56380 -0.13300
C 	C 	0.95540 0.54860 0.50400 0.09000
C 	C 	0.82100 0.34060 0.10430 0.35200
C 	C 	0.71190 0.36670 0.07330 -0.11300
C 	C 	0.64180 0.28900 0.07520 0.00700
C 	C 	0.54300 0.34160 0.04480 -0.07800
C 	C 	0.54080 0.45940 0.01850 -0.04400
C 	C 	0.09580 0.53780 0.13420 0.44300
C 	C 	0.15880 0.61460 0.15510 -0.14800
C 	C 	0.22440 0.68820 0.11220 0.05700
C 	C 	0.27790 0.74390 0.14960 -0.11400
C 	C 	0.24970 0.71350 0.22160 0.01900
C 	C 	0.16210 0.26070 0.05050 0.43400
C 	C 	0.27050 0.18830 0.01880 -0.17900
C 	C 	0.31690 0.19610 0.94700 0.10700
C 	C 	0.42090 0.11310 0.93620 -0.14500
C 	C 	0.45140 0.04460 0.99600 0.04600
C 	C 	0.34060 0.82100 0.60430 0.35700
C 	C 	0.36670 0.71190 0.57330 -0.11400
C 	C 	0.28900 0.64180 0.57520 0.02700
C 	C 	0.34160 0.54300 0.54480 -0.09900
C 	C 	0.45940 0.54080 0.51850 0.01000
C 	C 	0.53780 0.09580 0.63420 0.44000
C 	C 	0.61460 0.15880 0.65510 -0.14200
C 	C 	0.68820 0.22440 0.61220 0.05300
C 	C 	0.74390 0.27790 0.64960 -0.10800
C 	C 	0.71350 0.24970 0.72160 0.01800
C 	C 	0.26070 0.16210 0.55050 0.41500
C 	C 	0.18830 0.27050 0.51880 -0.11300
C 	C 	0.19610 0.31690 0.44700 -0.00200
C 	C 	0.11310 0.42090 0.43620 -0.05300
C 	C 	0.04460 0.45140 0.49600 -0.07800
C 	C 	0.17900 0.65940 0.89570 0.36500
C 	C 	0.28810 0.63330 0.92670 -0.11700
C 	C 	0.35820 0.71100 0.92480 0.04500
C 	C 	0.45700 0.65840 0.95520 -0.11500
C 	C 	0.45920 0.54060 0.98150 0.06500
C 	C 	0.90420 0.46220 0.86580 0.42800
C 	C 	0.84120 0.38540 0.84490 -0.12000
C 	C 	0.77560 0.31180 0.88780 0.03600
C 	C 	0.72210 0.25610 0.85040 -0.08700
C 	C 	0.75030 0.28650 0.77840 0.00000
C 	C 	0.83790 0.73930 0.94950 0.39800
C 	C 	0.72950 0.81170 0.98120 -0.05100
C 	C 	0.68310 0.80390 0.05300 -0.05700
C 	C 	0.57910 0.88690 0.06380 -0.04100
C 	C 	0.54860 0.95540 0.00400 -0.03300
S 	S 	0.49809 0.33953 0.46582 0.02000
S 	S 	0.38793 0.83895 0.25749 0.03700
S 	S 	0.91740 0.64886 0.42996 0.04500
S 	S 	0.66047 0.50191 0.03418 0.00200
S 	S 	0.16105 0.61207 0.24251 0.00000
S 	S 	0.35114 0.08260 0.07004 -0.06000
S 	S 	0.50191 0.66047 0.53418 0.02500
S 	S 	0.61207 0.16105 0.74251 -0.00300
S 	S 	0.08260 0.35114 0.57004 -0.01600
S 	S 	0.33953 0.49809 0.96582 0.04200
S 	S 	0.83895 0.38793 0.75749 0.03400
S 	S 	0.64886 0.91740 0.92996 0.08700
O 	O 	0.57720 0.12280 0.40820 -0.55300
O 	O 	0.75320 0.15100 0.35800 -0.46100
O 	O 	0.53920 0.93960 0.31740 -0.47400
O 	O 	0.44380 0.91940 0.42870 -0.43600
O 	O 	0.76110 0.86750 0.38430 -0.45100
O 	O 	0.66200 0.88600 0.49390 -0.42500
O 	O 	0.87720 0.42280 0.09180 -0.51900
O 	O 	0.84900 0.24680 0.14200 -0.45200
O 	O 	0.06040 0.46080 0.18260 -0.53500
O 	O 	0.08060 0.55620 0.07130 -0.49300
O 	O 	0.13250 0.23890 0.11570 -0.52000
O 	O 	0.11400 0.33800 0.00610 -0.50200
O 	O 	0.42280 0.87720 0.59180 -0.50800
O 	O 	0.24680 0.84900 0.64200 -0.44500
O 	O 	0.46080 0.06040 0.68260 -0.53600
O 	O 	0.55620 0.08060 0.57130 -0.48100
O 	O 	0.23890 0.13250 0.61570 -0.51500
O 	O 	0.33800 0.11400 0.50610 -0.47900
O 	O 	0.12280 0.57720 0.90820 -0.54000
O 	O 	0.15100 0.75320 0.85800 -0.45500
O 	O 	0.93960 0.53920 0.81740 -0.47400
O 	O 	0.91940 0.44380 0.92870 -0.41800
O 	O 	0.86750 0.76110 0.88430 -0.44500
O 	O 	0.88600 0.66200 0.99390 -0.39700
