data_crystal

_cell_length_a 16.06720
_cell_length_b 32.96150
_cell_length_c 37.62920
_cell_angle_alpha 105.85190
_cell_angle_beta  90.25850
_cell_angle_gamma 89.42320

_symmetry_space_group_name_	'P 1'
_symmetry_space_group_name_H-M	'P 1'

loop_
_symmetry_equiv_pos_as_xyz
  x,y,z

loop_
_atom_site_label
_atom_site_type_symbol
_atom_site_fract_x
_atom_site_fract_y
_atom_site_fract_z
_atom_site_charge
Mn	Mn	0.52211 0.18770 0.39738 1.20100
Mn	Mn	0.71912 0.19077 0.43297 1.27400
Mn	Mn	-0.05242 0.41611 0.61379 1.20900
Mn	Mn	0.75136 0.37827 0.59093 1.27000
Mn	Mn	0.75173 0.27983 0.51516 1.26500
C 	C 	0.62888 0.19614 0.33263 0.05400
N 	N 	0.62146 0.20090 0.36946 -0.25500
N 	N 	0.69563 0.19275 0.38094 -0.20400
N 	N 	0.74538 0.17800 0.35253 -0.07100
N 	N 	0.70565 0.17985 0.32213 -0.09200
N 	N 	0.86469 0.23410 0.41364 -0.12000
N 	N 	0.80662 0.23512 0.43853 -0.20900
N 	N 	0.81370 0.26939 0.46643 -0.19500
N 	N 	0.87879 0.29119 0.46110 -0.11100
C 	C 	0.90972 0.26886 0.42822 0.14800
C 	C 	0.84196 0.15834 0.50941 0.09800
N 	N 	0.74608 0.18588 0.48453 -0.19300
N 	N 	0.78130 0.14955 0.48406 -0.11300
N 	N 	0.64003 0.26168 0.48734 -0.23700
N 	N 	0.63583 0.23555 0.45399 -0.20400
N 	N 	0.55921 0.23403 0.44102 -0.21700
N 	N 	0.51004 0.25921 0.46533 -0.13300
N 	N 	0.77958 0.21666 0.51122 -0.19000
N 	N 	0.84319 0.20066 0.52613 -0.10200
C 	C 	0.56026 0.27687 0.49419 0.14900
N 	N 	0.87673 0.39468 0.64945 -0.26300
N 	N 	0.79825 0.38372 0.64235 -0.19800
N 	N 	0.76996 0.36616 0.66733 -0.06000
N 	N 	0.83103 0.36393 0.69072 -0.10100
N 	N 	0.65039 0.32109 0.62049 -0.10900
N 	N 	0.68924 0.32547 0.59094 -0.21300
N 	N 	0.69346 0.28880 0.56529 -0.19900
N 	N 	0.65969 0.25907 0.57806 -0.10100
N 	N 	0.71531 0.34743 0.48012 -0.11100
N 	N 	0.72174 0.33883 0.51209 -0.19900
N 	N 	0.71408 0.37369 0.53937 -0.20500
N 	N 	0.70384 0.40656 0.52566 -0.10600
N 	N 	0.85828 0.30570 0.54523 -0.22300
N 	N 	0.85277 0.34369 0.56949 -0.19900
N 	N 	0.92593 0.36171 0.57519 -0.21600
N 	N 	-0.01761 0.33725 0.55506 -0.11800
Cl	Cl	0.60888 0.14649 0.42349 -0.77100
Cl	Cl	0.82646 0.43682 0.59239 -0.78900
C 	C 	0.89820 0.38094 0.67895 0.11800
C 	C 	0.63236 0.27993 0.61235 0.10200
C 	C 	0.70370 0.38950 0.48875 0.14800
C 	C 	0.94177 0.30178 0.53702 0.10200
Mn	Mn	0.97445 0.67834 0.41432 1.20100
Mn	Mn	0.17932 0.69505 0.43468 1.27800
Mn	Mn	0.45323 0.88675 0.63226 1.20500
Mn	Mn	0.25249 0.85435 0.61123 1.27700
Mn	Mn	0.22451 0.77235 0.52415 1.26000
C 	C 	0.03746 0.70563 0.34833 0.10800
N 	N 	0.04722 0.70506 0.38374 -0.26500
N 	N 	0.12792 0.70489 0.38904 -0.20100
N 	N 	0.16733 0.70117 0.35762 -0.07100
N 	N 	0.11236 0.70221 0.33161 -0.10400
N 	N 	0.27458 0.75763 0.41431 -0.12000
N 	N 	0.24214 0.74858 0.44276 -0.21200
N 	N 	0.27112 0.77370 0.47372 -0.19500
N 	N 	0.33227 0.79679 0.46556 -0.11000
C 	C 	0.33337 0.78554 0.42782 0.14200
C 	C 	0.32564 0.65034 0.49975 0.10100
N 	N 	0.23216 0.68183 0.47815 -0.20100
N 	N 	0.27201 0.64553 0.47184 -0.10800
N 	N 	0.10562 0.75557 0.50018 -0.23100
N 	N 	0.09530 0.72780 0.46750 -0.20800
N 	N 	0.01678 0.72238 0.45842 -0.21800
N 	N 	0.97152 0.74742 0.48367 -0.13500
N 	N 	0.25832 0.70870 0.50913 -0.19100
N 	N 	0.31858 0.68984 0.52314 -0.10200
C 	C 	0.02462 0.76757 0.51026 0.15300
N 	N 	0.39045 0.85537 0.66324 -0.25800
N 	N 	0.31459 0.84215 0.65295 -0.20800
N 	N 	0.29379 0.81147 0.66717 -0.06500
N 	N 	0.35324 0.80527 0.68897 -0.09400
N 	N 	0.14822 0.79327 0.63266 -0.12000
N 	N 	0.18675 0.80125 0.60464 -0.21200
N 	N 	0.17886 0.76949 0.57479 -0.19600
N 	N 	0.13469 0.73907 0.58323 -0.10700
N 	N 	0.13377 0.85084 0.51539 -0.11300
N 	N 	0.18649 0.83540 0.53575 -0.19300
N 	N 	0.19710 0.86424 0.56766 -0.20600
N 	N 	0.15268 0.89843 0.56944 -0.11500
N 	N 	0.34144 0.79229 0.54997 -0.22200
N 	N 	0.34423 0.82557 0.57932 -0.20500
N 	N 	0.42008 0.84043 0.58621 -0.20900
N 	N 	0.47117 0.81780 0.56163 -0.12000
Cl	Cl	0.09005 0.64016 0.42448 -0.77200
Cl	Cl	0.32864 0.91426 0.62130 -0.78900
C 	C 	0.41324 0.83285 0.68709 0.08900
C 	C 	0.11618 0.75464 0.61997 0.13500
C 	C 	0.11356 0.89010 0.53677 0.14200
C 	C 	0.42423 0.78684 0.53972 0.10400
Mn	Mn	1.02663 0.31609 0.15728 1.20100
Mn	Mn	0.20776 0.32691 0.11350 1.27400
Mn	Mn	0.42007 0.15491 0.90150 1.20600
Mn	Mn	0.22142 0.19194 0.92585 1.28400
Mn	Mn	0.21206 0.26267 0.01757 1.26700
C 	C 	0.16098 0.28249 0.20118 0.07100
N 	N 	0.13714 0.29401 0.17089 -0.25600
N 	N 	0.20526 0.30696 0.15859 -0.20700
N 	N 	0.26807 0.30743 0.18134 -0.07000
N 	N 	0.24245 0.29181 0.20807 -0.09400
N 	N 	0.35236 0.27239 0.11171 -0.11900
N 	N 	0.29248 0.28307 0.09198 -0.21600
N 	N 	0.28404 0.25422 0.06008 -0.19700
N 	N 	0.34141 0.22441 0.05744 -0.11200
C 	C 	0.38349 0.23633 0.08988 0.14400
C 	C 	0.26412 0.39030 0.04006 0.13400
N 	N 	0.21524 0.34909 0.06854 -0.20200
N 	N 	0.23053 0.38917 0.07236 -0.11700
N 	N 	0.11075 0.27523 0.05227 -0.23500
N 	N 	0.12008 0.28580 0.08849 -0.19800
N 	N 	0.04795 0.28402 0.10450 -0.21400
N 	N 	0.98883 0.27470 0.07934 -0.12800
N 	N 	0.23651 0.32619 0.03498 -0.20200
N 	N 	0.26639 0.35121 0.01580 -0.11700
C 	C 	0.02770 0.26983 0.04657 0.11500
N 	N 	0.35832 0.19168 0.87467 -0.26300
N 	N 	0.28111 0.20470 0.88298 -0.19300
N 	N 	0.25081 0.22212 0.85783 -0.05700
N 	N 	0.30915 0.22119 0.83281 -0.10100
N 	N 	0.14133 0.26337 0.91501 -0.25100
N 	N 	0.16385 0.24981 0.94069 -0.40000
N 	N 	0.14228 0.27160 0.97383 -0.22300
N 	N 	0.14672 0.26600 0.93554 0.32500
N 	N 	0.13043 0.18386 0.02439 -0.11000
N 	N 	0.17628 0.20081 0.00301 -0.19600
N 	N 	0.17028 0.17739 0.96863 -0.19800
N 	N 	0.12327 0.14410 0.96626 -0.10900
N 	N 	0.31784 0.24835 0.98510 -0.23900
N 	N 	0.31834 0.21505 0.95636 -0.20500
N 	N 	0.39393 0.19978 0.94846 -0.21500
N 	N 	0.44752 0.22238 0.97193 -0.13400
Cl	Cl	0.09923 0.36885 0.14031 -0.77200
Cl	Cl	0.29210 0.12955 0.90980 -0.78400
C 	C 	0.37652 0.20285 0.84389 0.11800
C 	C 	0.09519 0.29645 0.92298 0.01600
C 	C 	0.09911 0.14828 0.00130 0.14000
C 	C 	0.40036 0.25320 0.99407 0.16000
Mn	Mn	0.44113 0.86408 0.12070 1.20300
Mn	Mn	0.64958 0.85500 0.10447 1.27600
Mn	Mn	-0.06353 0.64417 0.92595 1.22500
Mn	Mn	0.73504 0.66252 0.95582 1.27200
Mn	Mn	0.71101 0.75762 0.03428 1.26100
C 	C 	0.50989 0.84696 0.19164 0.04400
N 	N 	0.52102 0.84408 0.15520 -0.24800
N 	N 	0.59691 0.85749 0.15303 -0.21000
N 	N 	0.62438 0.87781 0.18601 -0.07200
N 	N 	0.56991 0.87272 0.21068 -0.09400
N 	N 	0.78171 0.82195 0.13980 -0.11700
N 	N 	0.73225 0.81168 0.11113 -0.21200
N 	N 	0.75712 0.77572 0.08756 -0.19400
N 	N 	0.82452 0.76171 0.10114 -0.10400
C 	C 	0.83929 0.79138 0.13366 0.09500
C 	C 	0.81090 0.87172 0.03150 0.10000
N 	N 	0.70354 0.85392 0.05620 -0.19600
N 	N 	0.74909 0.88688 0.05556 -0.11200
N 	N 	0.58899 0.77357 0.05484 -0.22300
N 	N 	0.57183 0.81038 0.07852 -0.20500
N 	N 	0.49145 0.81802 0.08052 -0.21500
N 	N 	0.45127 0.78745 0.05786 -0.12000
N 	N 	0.73472 0.81920 0.03294 -0.19000
N 	N 	0.80317 0.82933 0.01777 -0.10500
C 	C 	0.51040 0.75903 0.04184 0.10200
N 	N 	0.84711 0.65490 0.89283 -0.25600
N 	N 	0.76870 0.65747 0.90270 -0.19800
N 	N 	0.72177 0.65704 0.87374 -0.06800
N 	N 	0.77039 0.65877 0.84568 -0.09800
N 	N 	0.61359 0.71458 0.92861 -0.11800
N 	N 	0.65516 0.70990 0.95753 -0.21300
N 	N 	0.65739 0.74614 0.98334 -0.19800
N 	N 	0.61695 0.77549 0.97190 -0.10700
N 	N 	0.69634 0.68299 0.06705 -0.10300
N 	N 	0.69667 0.69654 0.03669 -0.19900
N 	N 	0.70511 0.66364 1.00743 -0.20400
N 	N 	0.70762 0.62852 1.01720 -0.09500
N 	N 	0.82721 0.73599 1.00782 -0.22500
N 	N 	0.82546 0.70554 0.97583 -0.19700
N 	N 	0.89979 0.69917 0.96059 -0.21000
N 	N 	-0.04689 0.72499 0.98078 -0.12800
Cl	Cl	0.54597 0.90107 0.10113 -0.77200
Cl	Cl	0.83634 0.61326 0.95311 -0.77500
C 	C 	0.84933 0.65824 0.85808 0.09400
C 	C 	0.58986 0.75558 0.93760 0.14300
C 	C 	0.70200 0.64018 0.05409 0.09900
C 	C 	0.91091 0.74640 1.01075 0.15600
C 	C 	0.52798 0.30402 0.53072 -0.20100
C 	C 	0.43359 0.31698 0.53398 0.12500
C 	C 	0.41780 0.34344 0.57455 -0.14600
C 	C 	0.32596 0.35781 0.58006 0.05100
C 	C 	0.30491 0.38521 0.55387 -0.12600
C 	C 	0.31837 0.35900 0.51360 0.05300
C 	C 	0.41049 0.34469 0.50803 -0.14700
C 	C 	0.26104 0.32012 0.50496 -0.14100
C 	C 	0.28117 0.29190 0.53100 0.10600
C 	C 	0.22721 0.25095 0.52008 -0.15400
C 	C 	0.14185 0.25275 0.53742 0.05500
C 	C 	0.07089 0.26279 0.51962 -0.07500
C 	C 	-0.00802 0.26435 0.53596 -0.01000
C 	C 	-0.01672 0.24879 0.56691 -0.04000
C 	C 	0.05282 0.23620 0.58430 -0.01300
C 	C 	1.04497 0.22105 0.61941 0.10400
C 	C 	0.95418 0.22012 0.63272 -0.20200
C 	C 	0.09375 0.25118 0.65095 -0.20200
C 	C 	0.08079 0.17586 0.61162 -0.19700
C 	C 	0.13233 0.24047 0.57003 -0.08000
C 	C 	0.26846 0.31883 0.57154 -0.14100
C 	C 	0.37467 0.27824 0.52606 -0.15900
H 	H 	0.53839 0.28568 0.55086 0.07500
H 	H 	0.56620 0.33293 0.53884 0.05600
H 	H 	0.45885 0.37156 0.58168 0.04500
H 	H 	0.43364 0.32460 0.59407 0.05200
H 	H 	0.31685 0.37682 0.60916 -0.00400
H 	H 	0.23927 0.39644 0.55793 0.03000
H 	H 	0.34508 0.41361 0.56013 0.03900
H 	H 	0.30271 0.37868 0.49472 0.00100
H 	H 	0.42048 0.32736 0.47860 0.05400
H 	H 	0.45132 0.37278 0.51437 0.05100
H 	H 	0.19494 0.33077 0.50840 0.04900
H 	H 	0.26919 0.30198 0.47558 0.04300
H 	H 	0.22000 0.24088 0.48956 0.04600
H 	H 	0.26192 0.22449 0.52650 0.04900
H 	H 	0.07842 0.27460 0.49568 0.04000
H 	H 	0.92306 0.25203 0.58000 0.03900
H 	H 	0.91557 0.19916 0.61075 0.06900
H 	H 	0.92665 0.25244 0.64081 0.06600
H 	H 	0.95191 0.20784 0.65747 0.06100
H 	H 	0.16116 0.24751 0.64627 0.06000
H 	H 	0.07764 0.28431 0.65242 0.06000
H 	H 	1.08115 0.24544 0.67814 0.05800
H 	H 	1.04449 0.15407 0.58937 0.06400
H 	H 	1.14650 0.17395 0.60251 0.05700
H 	H 	0.07845 0.16435 0.63671 0.06000
H 	H 	0.18752 0.23262 0.58345 0.03700
H 	H 	0.20277 0.32977 0.57631 0.04500
H 	H 	0.28207 0.29959 0.59084 0.04900
H 	H 	0.38277 0.25786 0.49759 0.05200
H 	H 	0.39082 0.25869 0.54507 0.05400
C 	C 	0.99316 0.80431 0.54102 -0.19900
C 	C 	0.89895 0.80354 0.55388 0.12100
C 	C 	0.89738 0.79523 0.59232 -0.15000
C 	C 	0.80716 0.79658 0.60625 0.05500
C 	C 	0.76764 0.84024 0.60946 -0.12800
C 	C 	0.76715 0.84874 0.57128 0.05200
C 	C 	0.85766 0.84750 0.55732 -0.14800
C 	C 	0.71443 0.81480 0.54419 -0.14300
C 	C 	0.75172 0.77037 0.54099 0.10700
C 	C 	0.70305 0.73519 0.51215 -0.15100
C 	C 	0.61641 0.72635 0.52387 0.05100
C 	C 	0.54691 0.74612 0.51310 -0.07300
C 	C 	0.47010 0.74664 0.53094 -0.01400
C 	C 	0.46272 0.72272 0.55650 -0.03800
C 	C 	0.52657 0.69551 0.56198 -0.01400
C 	C 	0.51642 0.66806 0.58900 0.11500
C 	C 	0.42459 0.66357 0.59976 -0.20700
C 	C 	0.56480 0.68867 0.62428 -0.20800
C 	C 	0.55125 0.62301 0.57222 -0.20800
C 	C 	0.60496 0.69942 0.54658 -0.07300
C 	C 	0.75440 0.76243 0.57964 -0.14400
C 	C 	0.84223 0.76992 0.52750 -0.15500
H 	H 	0.03686 0.81068 0.56479 0.06300
H 	H 	0.99705 0.83126 0.52924 0.07100
H 	H 	-0.06571 0.81953 0.61244 0.05200
H 	H 	0.92615 0.76399 0.59088 0.05500
H 	H 	0.80972 0.79082 0.63359 0.00200
H 	H 	0.70268 0.84113 0.61973 0.02000
H 	H 	-0.19681 0.86511 0.62953 0.03800
H 	H 	0.73942 0.88039 0.57356 -0.01100
H 	H 	0.85753 0.85451 0.53002 0.04700
H 	H 	-0.10592 0.87270 0.57671 0.04900
H 	H 	0.64920 0.81651 0.55423 0.04500
H 	H 	0.71313 0.82109 0.51657 0.04600
H 	H 	0.69889 0.74365 0.48547 0.03900
H 	H 	0.73986 0.70543 0.50597 0.03900
H 	H 	0.55612 0.76705 0.49574 0.03800
H 	H 	0.40937 0.72879 0.57462 0.04000
H 	H 	0.39841 0.69392 0.61687 0.07000
H 	H 	0.41935 0.64055 0.61641 0.06200
H 	H 	0.38559 0.65196 0.57471 0.07500
H 	H 	0.63227 0.68785 0.61798 0.06200
H 	H 	0.54374 0.72194 0.63566 0.06600
H 	H 	0.55534 0.67181 0.64577 0.06200
H 	H 	0.55405 0.60530 0.59347 0.06200
H 	H 	0.51017 0.60540 0.54986 0.07500
H 	H 	0.61481 0.62267 0.56083 0.06500
H 	H 	0.65884 0.68362 0.55397 0.03400
H 	H 	0.69019 0.76370 0.59054 0.05200
H 	H 	0.78081 0.73062 0.57792 0.04900
H 	H 	0.83908 0.77620 0.49989 0.04900
H 	H 	0.86809 0.73781 0.52525 0.05200
C 	C 	0.43928 0.29097 0.01984 -0.20600
C 	C 	0.51386 0.30989 0.00259 0.12200
C 	C 	0.51208 0.30180 0.95950 -0.13900
C 	C 	0.58842 0.32204 0.94652 0.05100
C 	C 	0.58656 0.36980 0.96420 -0.12600
C 	C 	0.58902 0.37820 0.00641 0.05500
C 	C 	0.51323 0.35808 0.01958 -0.15200
C 	C 	0.66916 0.36035 0.01879 -0.14400
C 	C 	0.67427 0.31212 0.00013 0.10400
C 	C 	0.75147 0.29110 0.01276 -0.14800
C 	C 	0.84008 0.29850 0.00236 0.04200
C 	C 	0.89944 0.27211 0.01218 -0.06200
C 	C 	0.98187 0.28466 0.01859 -0.03600
C 	C 	1.00689 0.32242 1.01156 -0.03100
C 	C 	0.95105 0.34755 0.99763 -0.01900
C 	C 	-0.02390 0.39079 0.99244 0.11500
C 	C 	0.07120 0.39879 0.99610 -0.21000
C 	C 	-0.06722 0.42637 1.02222 -0.20300
C 	C 	-0.05152 0.39349 0.95374 -0.20400
C 	C 	0.86745 0.33433 0.99236 -0.06400
C 	C 	0.66962 0.30307 0.95751 -0.13700
C 	C 	0.59682 0.29194 0.01326 -0.15900
H 	H 	0.39115 0.31506 0.03038 0.06500
H 	H 	0.46096 0.28173 0.04460 0.06900
H 	H 	0.45353 0.31441 0.95058 0.05400
H 	H 	0.51570 0.26801 0.94457 0.04500
H 	H 	0.58697 0.31582 0.91616 0.00200
H 	H 	0.64050 0.38486 0.95459 0.04600
H 	H 	0.52892 0.38378 0.95584 0.04400
H 	H 	0.58888 0.41227 0.01863 -0.00000
H 	H 	0.51472 0.36553 0.05015 0.05100
H 	H 	0.45465 0.37109 0.01112 0.05400
H 	H 	0.72149 0.37832 0.01220 0.05000
H 	H 	0.66925 0.36668 0.04942 0.04800
H 	H 	0.75031 0.29937 0.04350 0.04700
H 	H 	0.74192 0.25649 0.00353 0.04500
H 	H 	0.87897 0.24478 0.02060 0.03200
H 	H 	0.06853 0.33355 1.02005 0.03300
H 	H 	0.10679 0.37290 0.97722 0.07600
H 	H 	0.08766 0.42856 0.98949 0.06400
H 	H 	0.09312 0.40195 1.02474 0.07800
H 	H 	0.86424 0.42223 1.02193 0.06300
H 	H 	-0.04381 0.42697 1.05022 0.07000
H 	H 	-0.05460 0.45764 1.01758 0.06600
H 	H 	-0.02260 0.42071 0.94656 0.06400
H 	H 	-0.03351 0.36429 0.93246 0.07100
H 	H 	0.87994 0.39743 0.95216 0.06100
H 	H 	0.82455 0.35303 0.98166 0.03700
H 	H 	0.72341 0.31675 0.94663 0.05200
H 	H 	0.67153 0.26848 0.94429 0.04300
H 	H 	0.59989 0.29795 0.04385 0.05100
H 	H 	0.59789 0.25713 0.00128 0.05000
C 	C 	-0.03535 0.76112 0.04439 -0.20300
C 	C 	0.02548 0.72563 0.05179 0.12000
C 	C 	0.05066 0.74013 0.09275 -0.15300
C 	C 	0.11083 0.70908 0.10325 0.06000
C 	C 	1.06832 0.66590 0.09659 -0.13000
C 	C 	0.04400 0.64992 0.05564 0.04100
C 	C 	0.98325 0.68169 1.04524 -0.13500
C 	C 	0.12361 0.64463 1.03186 -0.12000
C 	C 	0.17036 0.68728 0.03787 0.09200
C 	C 	0.25002 0.67997 0.01123 -0.15000
C 	C 	0.33878 0.68297 0.02723 0.04800
C 	C 	0.39980 0.70790 0.01630 -0.07500
C 	C 	0.47826 0.71564 0.03449 -0.01900
C 	C 	0.49498 0.69619 0.06238 -0.04200
C 	C 	0.43454 0.67225 0.07437 -0.01700
C 	C 	0.44486 0.66513 0.11290 0.11400
C 	C 	0.52365 0.63883 0.11344 -0.21200
C 	C 	0.37006 0.64314 0.12526 -0.20500
C 	C 	0.45474 0.70801 0.14173 -0.20700
C 	C 	0.36151 0.66138 0.05315 -0.07300
C 	C 	0.19033 0.70493 0.07980 -0.14000
C 	C 	0.10732 0.71912 0.02772 -0.15700
H 	H 	0.92927 0.77923 0.06820 0.07300
H 	H 	0.00525 0.78518 1.03884 0.07200
H 	H 	0.99340 0.74042 0.10840 0.06600
H 	H 	0.07741 0.77225 0.10036 0.05600
H 	H 	0.12701 0.72116 0.13303 0.00200
H 	H 	1.11113 0.64297 0.10428 0.04400
H 	H 	1.01197 0.66866 0.11422 0.04600
H 	H 	1.01288 0.61887 1.05078 0.01200
H 	H 	0.96507 0.66862 1.01591 0.04300
H 	H 	0.92515 0.68453 1.06179 0.06400
H 	H 	0.16509 0.62069 0.03874 0.04100
H 	H 	0.10562 0.63197 1.00236 0.02400
H 	H 	0.24622 0.64828 -0.00874 0.04300
H 	H 	0.24523 0.70195 0.99358 0.04900
H 	H 	0.38280 0.72530 0.99658 0.04200
H 	H 	0.54817 0.70703 0.07979 0.03900
H 	H 	0.52828 0.62773 0.13876 0.06600
H 	H 	0.52315 0.61156 0.08868 0.07500
H 	H 	0.58005 0.65775 0.11282 0.07600
H 	H 	0.31417 0.66395 0.12975 0.06000
H 	H 	0.35574 0.61298 0.10472 0.06300
H 	H 	0.38363 0.63640 0.15214 0.06000
H 	H 	0.40348 0.73025 0.13992 0.05700
H 	H 	0.51492 0.72312 0.13876 0.07000
H 	H 	0.45282 0.70260 0.16932 0.07000
H 	H 	0.31865 0.63886 0.05864 0.03700
H 	H 	0.23134 0.68378 0.08982 0.05300
H 	H 	0.22148 0.73594 0.08525 0.04500
H 	H 	0.09153 0.70694 0.99808 0.04600
H 	H 	0.13824 0.74978 0.03099 0.05200
C 	C 	0.04283 0.91782 0.53016 -0.18500
C 	C 	0.03906 0.92443 0.49112 0.12600
C 	C 	0.12791 0.93023 0.47713 -0.15400
C 	C 	0.12293 0.93582 0.43810 0.06500
C 	C 	0.08252 0.89706 0.41204 -0.13800
C 	C 	-0.00635 0.89171 0.42551 0.06400
C 	C 	-0.00227 0.88560 0.46430 -0.15000
C 	C 	0.94092 0.93119 0.42599 -0.15200
C 	C 	-0.01978 0.97142 0.45222 0.11600
C 	C 	0.92331 1.01012 0.45043 -0.15800
C 	C 	0.95023 0.05472 0.47107 0.05900
C 	C 	0.89305 0.08391 0.49259 -0.07900
C 	C 	0.91235 0.12731 0.50556 -0.00200
C 	C 	0.99532 0.13949 0.50241 -0.05400
C 	C 	1.05445 0.11027 0.48163 -0.01100
C 	C 	0.14655 0.12194 0.47857 0.11000
C 	C 	1.15211 0.15655 0.45850 -0.20600
C 	C 	0.20194 0.08455 0.45688 -0.19600
C 	C 	0.18383 0.13690 0.51765 -0.20800
C 	C 	1.02563 0.07035 0.46244 -0.08300
C 	C 	0.07073 0.97525 0.43895 -0.15000
C 	C 	-0.01482 0.96469 0.49156 -0.16200
H 	H 	-0.01707 0.90466 0.53637 0.05800
H 	H 	0.04845 0.94897 0.55089 0.06400
H 	H 	0.16855 0.90245 0.47594 0.06800
H 	H 	0.15806 0.95804 0.49624 0.05800
H 	H 	0.18681 0.93965 0.42825 0.00100
H 	H 	0.08087 0.90239 0.38430 0.05000
H 	H 	0.12096 0.86840 0.41064 0.05300
H 	H 	-0.03647 0.86333 0.40755 -0.00200
H 	H 	0.93354 0.88123 0.47353 0.04700
H 	H 	0.03284 0.85606 0.46312 0.06100
H 	H 	0.93597 0.93452 0.39741 0.04900
H 	H 	0.87649 0.92683 0.43494 0.04900
H 	H 	0.91700 1.00985 0.42091 0.05300
H 	H 	0.85963 1.00453 0.45946 0.05400
H 	H 	0.82968 0.07399 0.49488 0.04800
H 	H 	1.01188 0.17217 0.51313 0.04400
H 	H 	1.11634 0.18496 0.47311 0.06700
H 	H 	1.12629 0.14461 0.43019 0.06000
H 	H 	1.21785 0.16562 0.45604 0.04900
H 	H 	0.19788 0.05744 0.46892 0.06000
H 	H 	1.18455 0.07400 0.42720 0.05200
H 	H 	0.26831 0.09392 0.45783 0.05400
H 	H 	0.24962 0.14677 0.51673 0.06000
H 	H 	0.14795 0.16383 0.53443 0.07200
H 	H 	0.18139 0.11122 0.53167 0.06400
H 	H 	0.06018 0.05218 0.43915 0.04300
H 	H 	0.07048 0.98072 0.41105 0.05100
H 	H 	0.10305 1.00136 0.45876 0.05600
H 	H 	0.92136 0.96138 0.50175 0.05300
H 	H 	0.01314 0.99300 0.51088 0.06000
C 	C 	0.03630 0.11947 0.01174 -0.18000
C 	C 	0.06923 0.09530 0.03919 0.12100
C 	C 	0.15038 0.07074 0.02419 -0.14900
C 	C 	0.18329 0.04766 0.05186 0.05800
C 	C 	0.20114 0.07989 0.08920 -0.13100
C 	C 	0.11978 0.10336 0.10449 0.05600
C 	C 	0.08676 0.12694 0.07738 -0.14800
C 	C 	0.05394 0.07177 0.10963 -0.13900
C 	C 	0.03474 0.03827 0.07256 0.10600
C 	C 	0.96569 0.00773 0.08093 -0.15300
C 	C 	0.96711 0.96050 0.06101 0.05500
C 	C 	0.89293 0.93936 0.04683 -0.07700
C 	C 	0.89115 0.89491 0.03361 -0.00300
C 	C 	0.96684 0.87247 0.03055 -0.05200
C 	C 	1.04127 0.89248 0.04598 -0.01000
C 	C 	0.12272 0.86719 0.04643 0.09900
C 	C 	1.11866 0.84531 0.07786 -0.20100
C 	C 	0.20112 0.89558 0.05266 -0.18800
C 	C 	0.13563 0.83415 0.00865 -0.19900
C 	C 	1.03642 0.93563 0.06440 -0.08100
C 	C 	0.11855 0.01593 0.05762 -0.14400
C 	C 	0.00313 0.06262 0.04459 -0.15600
H 	H 	-0.01936 0.13862 0.02354 0.06000
H 	H 	0.01548 0.09606 -0.01401 0.06100
H 	H 	0.19930 0.09252 0.01979 0.06400
H 	H 	0.13860 0.04759 -0.00297 0.05600
H 	H 	0.24184 0.03051 0.04100 0.00200
H 	H 	0.22717 0.06358 0.10910 0.04300
H 	H 	0.24878 0.10262 0.08545 0.04800
H 	H 	0.13200 0.12663 0.13144 0.00600
H 	H 	0.02902 0.14468 0.08857 0.05100
H 	H 	0.13412 0.15041 0.07530 0.06500
H 	H 	0.07689 0.05566 0.13013 0.04600
H 	H 	0.99618 0.08921 0.12123 0.04600
H 	H 	0.96829 0.00896 0.11077 0.05000
H 	H 	0.90333 0.02110 0.07742 0.05100
H 	H 	0.83519 0.95713 0.04920 0.04500
H 	H 	0.96564 0.83892 0.01873 0.03700
H 	H 	1.05371 0.83839 0.08402 0.06300
H 	H 	1.14451 0.86545 0.10396 0.04400
H 	H 	1.15613 0.81581 0.07112 0.04800
H 	H 	0.20296 0.91461 0.03242 0.05700
H 	H 	0.20388 0.91721 0.08101 0.03800
H 	H 	0.25887 0.87604 0.04945 0.03300
H 	H 	0.19695 0.81797 0.00762 0.05500
H 	H 	0.08842 0.80909 0.00282 0.06100
H 	H 	0.13342 0.84977 -0.01403 0.06200
H 	H 	0.08437 0.94939 0.08359 0.04000
H 	H 	0.14708 0.00147 0.07806 0.05000
H 	H 	0.10852 -0.00873 0.03119 0.05600
H 	H 	0.94397 0.07958 0.05478 0.04900
H 	H 	-0.01094 0.03961 0.01763 0.05600
C 	C 	0.70266 0.41373 0.46021 -0.18600
C 	C 	0.61425 0.41992 0.44528 0.12400
C 	C 	0.62178 0.43070 0.40766 -0.15200
C 	C 	0.53494 0.43568 0.39153 0.06000
C 	C 	0.48419 0.39515 0.38686 -0.13300
C 	C 	0.47440 0.38670 0.42483 0.05900
C 	C 	0.56119 0.37941 0.43943 -0.15000
C 	C 	0.43070 0.42493 0.45225 -0.14500
C 	C 	0.48183 0.46610 0.45727 0.10900
C 	C 	0.43698 0.50393 0.48603 -0.15300
C 	C 	0.45271 0.54950 0.48505 0.05500
C 	C 	0.38840 0.57980 0.49610 -0.07700
C 	C 	0.39918 0.62180 0.49514 -0.00400
C 	C 	0.47234 0.63237 0.47927 -0.04700
C 	C 	0.53734 0.60242 0.46724 -0.00800
C 	C 	0.61361 0.61013 0.44496 0.09900
C 	C 	0.60379 0.65022 0.43137 -0.19700
C 	C 	0.62708 0.57249 0.41015 -0.19400
C 	C 	0.69193 0.61417 0.46928 -0.19600
C 	C 	0.52937 0.56299 0.47455 -0.07900
C 	C 	0.48873 0.47308 0.41794 -0.14600
C 	C 	0.56864 0.45711 0.47269 -0.16300
H 	H 	0.74263 0.39614 0.43695 0.06400
H 	H 	0.73349 0.44456 0.47170 0.06500
H 	H 	0.65661 0.40564 0.38761 0.05200
H 	H 	0.65722 0.46031 0.41105 0.04900
H 	H 	0.54244 0.44167 0.36403 -0.00000
H 	H 	0.42171 0.39877 0.37518 0.04600
H 	H 	0.51619 0.36797 0.36721 0.04800
H 	H 	0.43670 0.35788 0.42176 -0.00300
H 	H 	0.55324 0.37102 0.46581 0.06100
H 	H 	0.59310 0.35215 0.41987 0.05600
H 	H 	0.36712 0.42887 0.44173 0.04900
H 	H 	0.42359 0.41838 0.47943 0.05000
H 	H 	0.36867 0.49875 0.48333 0.05200
H 	H 	0.45160 0.50215 0.51441 0.05100
H 	H 	0.32898 0.57054 0.50496 0.04300
H 	H 	0.47586 0.66347 0.47505 0.04100
H 	H 	0.54412 0.64960 0.41630 0.05900
H 	H 	0.65525 0.65271 0.41242 0.04100
H 	H 	0.60519 0.67918 0.45451 0.06200
H 	H 	0.65321 0.54454 0.41748 0.05400
H 	H 	0.56798 0.56330 0.39479 0.05900
H 	H 	0.67272 0.58035 0.39099 0.04600
H 	H 	0.74667 0.62284 0.45506 0.03500
H 	H 	0.68222 0.63840 0.49563 0.06100
H 	H 	0.70646 0.58418 0.47614 0.05500
H 	H 	0.58191 0.54204 0.46914 0.04000
H 	H 	0.42542 0.47632 0.40674 0.05400
H 	H 	0.52210 0.50204 0.41794 0.05700
H 	H 	0.55987 0.44924 0.49943 0.06000
H 	H 	0.60911 0.48498 0.47904 0.05800
C 	C 	0.30015 0.42994 0.03357 -0.17700
C 	C 	0.35918 0.45723 0.06497 0.11900
C 	C 	0.31639 0.49972 0.08501 -0.14700
C 	C 	0.37635 0.52741 0.11368 0.05800
C 	C 	0.40084 0.50467 0.14289 -0.13200
C 	C 	0.44439 0.46258 0.12369 0.05800
C 	C 	0.38481 0.43508 0.09528 -0.14600
C 	C 	0.52357 0.47113 0.10435 -0.14700
C 	C 	0.50198 0.49486 0.07489 0.11500
C 	C 	0.58255 0.50170 0.05358 -0.15900
C 	C 	0.63634 0.53883 0.07251 0.06000
C 	C 	0.64904 0.57119 0.05578 -0.07700
C 	C 	0.69271 0.60755 0.07435 -0.00100
C 	C 	0.72729 0.60999 0.10954 -0.05400
C 	C 	0.72703 0.57445 0.12423 -0.00500
C 	C 	0.76956 0.57488 0.16153 0.09200
C 	C 	0.79205 0.52936 0.16410 -0.18600
C 	C 	0.70931 0.59563 0.19374 -0.18900
C 	C 	0.85284 0.59955 0.16620 -0.19200
C 	C 	0.68099 0.53918 0.10470 -0.08100
C 	C 	0.45618 0.53658 0.09433 -0.14800
C 	C 	0.43929 0.46820 0.04657 -0.16700
H 	H 	0.33345 0.42055 0.00668 0.05600
H 	H 	0.24689 0.44963 0.02891 0.05700
H 	H 	0.25891 0.49369 0.09905 0.05600
H 	H 	0.29742 0.51720 0.06479 0.04900
H 	H 	0.34390 0.55723 0.12784 0.00100
H 	H 	0.44308 0.52481 0.16371 0.04500
H 	H 	0.34480 0.49921 0.15811 0.04600
H 	H 	0.46132 0.44600 0.14482 -0.00200
H 	H 	0.41325 0.40377 0.08283 0.05000
H 	H 	0.33009 0.43044 0.11146 0.05200
H 	H 	0.56440 0.49037 0.12613 0.05100
H 	H 	0.55655 0.44086 0.09169 0.05000
H 	H 	0.62370 0.47371 0.04871 0.05500
H 	H 	0.56514 0.50393 0.02541 0.05200
H 	H 	0.62271 0.56880 0.02845 0.04500
H 	H 	0.75621 0.63881 0.12458 0.03700
H 	H 	0.82899 0.51117 0.13965 0.05600
H 	H 	0.73529 0.51072 0.16618 0.05100
H 	H 	0.83037 0.53116 0.18927 0.05200
H 	H 	0.67467 0.62277 0.18815 0.05600
H 	H 	0.66232 0.57264 0.19815 0.05400
H 	H 	0.74463 0.60703 0.22010 0.05200
H 	H 	0.88333 0.59896 0.19259 0.05400
H 	H 	0.89590 0.58427 0.14326 0.06100
H 	H 	0.84650 0.63352 0.16726 0.05700
H 	H 	0.68106 0.51108 0.11370 0.04000
H 	H 	0.49725 0.55662 0.11560 0.05600
H 	H 	0.43961 0.55383 0.07369 0.05200
H 	H 	0.46922 0.43915 0.03073 0.05900
H 	H 	0.42174 0.48561 0.02609 0.05400
C 	C 	0.99069 0.27944 0.41347 -0.18600
C 	C 	1.03272 0.24550 0.38116 0.12600
C 	C 	1.12426 0.25985 0.37930 -0.15500
C 	C 	0.17116 0.22929 0.34757 0.06300
C 	C 	1.17223 0.18472 0.35333 -0.13400
C 	C 	1.08239 0.16975 0.35481 0.05800
C 	C 	1.03563 0.20047 0.38702 -0.15000
C 	C 	1.03804 0.16804 0.31799 -0.14600
C 	C 	1.03577 0.21239 0.31091 0.11100
C 	C 	0.98855 0.21010 0.27362 -0.15500
C 	C 	1.04594 0.20637 0.24112 0.05300
C 	C 	1.06222 0.24247 0.22949 -0.09500
C 	C 	0.13147 0.24322 0.20770 -0.02200
C 	C 	0.18364 0.20757 0.19670 -0.04300
C 	C 	0.16932 0.17095 0.20802 -0.01600
C 	C 	0.23990 0.13805 0.20620 0.10600
C 	C 	0.30476 0.13777 0.17569 -0.20200
C 	C 	0.20554 0.09297 0.19905 -0.20200
C 	C 	0.28600 0.14917 0.24358 -0.19900
C 	C 	0.09563 0.16991 0.22804 -0.07500
C 	C 	0.12704 0.22877 0.31121 -0.14600
C 	C 	0.98850 0.24302 0.34371 -0.16400
H 	H 	1.03420 0.28693 0.43734 0.06200
H 	H 	0.98136 0.30919 0.40539 0.06000
H 	H 	1.15746 0.26128 0.40564 0.04500
H 	H 	0.12576 0.29210 0.37543 0.05200
H 	H 	0.23624 0.24015 0.34677 -0.01200
H 	H 	1.20654 0.16236 0.33050 0.03200
H 	H 	1.20514 0.18499 0.37944 0.02800
H 	H 	1.08306 0.13764 0.35900 -0.00200
H 	H 	0.97318 0.18705 0.38785 0.06000
H 	H 	1.06652 0.20172 0.41368 0.05300
H 	H 	1.07104 0.14483 0.29547 0.04900
H 	H 	0.97362 0.15623 0.31873 0.05300
H 	H 	0.94416 0.18342 0.26673 0.05400
H 	H 	0.94919 0.23879 0.27688 0.04900
H 	H 	1.02590 0.27105 0.24010 0.00800
H 	H 	0.23894 0.21024 0.18131 0.04200
H 	H 	0.27384 0.13698 0.14918 0.06400
H 	H 	0.34743 0.11007 0.17111 0.05700
H 	H 	0.34471 0.16613 0.18349 0.06000
H 	H 	0.16785 0.08909 0.22249 0.05700
H 	H 	0.16665 0.08524 0.17401 0.06200
H 	H 	0.25697 0.06937 0.19522 0.05300
H 	H 	0.33969 0.12748 0.24294 0.05100
H 	H 	0.30990 0.18193 0.25029 0.05800
H 	H 	0.24416 0.14638 0.26612 0.05500
H 	H 	0.08139 0.14259 0.23717 0.03800
H 	H 	0.16498 0.20862 0.28875 0.06000
H 	H 	0.12695 0.26100 0.30722 0.05500
H 	H 	0.92336 0.23220 0.34449 0.06700
H 	H 	0.98525 0.27499 0.33923 0.05400
C 	C 	-0.03700 0.72551 0.33515 -0.18100
C 	C 	-0.01536 0.76316 0.31873 0.12600
C 	C 	0.90531 0.79074 0.31979 -0.15300
C 	C 	0.92290 0.82778 0.30320 0.06100
C 	C 	-0.00767 0.85557 0.32461 -0.13500
C 	C 	0.07173 0.82875 0.32418 0.06200
C 	C 	0.05340 0.79253 0.34141 -0.15200
C 	C 	0.10146 0.81049 0.28412 -0.14600
C 	C 	0.03168 0.78351 0.26045 0.11400
C 	C 	0.06135 0.76576 0.21932 -0.15300
C 	C 	1.02890 0.79098 0.19385 0.05500
C 	C 	0.95815 0.77663 0.17219 -0.08400
C 	C 	0.92057 0.80158 0.15195 -0.00700
C 	C 	0.95161 0.84197 0.15493 -0.04900
C 	C 	1.01396 0.85951 0.18058 -0.01400
C 	C 	1.01912 0.90806 0.19469 0.10000
C 	C 	1.04695 0.92712 0.16359 -0.19800
C 	C 	1.07949 0.92306 0.22772 -0.19300
C 	C 	0.93163 0.92577 0.20807 -0.19600
C 	C 	1.05810 0.83204 0.19704 -0.08100
C 	C 	0.95077 0.81086 0.26320 -0.15000
C 	C 	0.01230 0.74647 0.27750 -0.15900
H 	H 	-0.07908 0.73713 0.35930 0.01800
H 	H 	-0.07162 0.70083 0.31461 0.03900
H 	H 	0.88324 0.80356 0.34868 0.04700
H 	H 	0.85439 0.77122 0.30409 0.04700
H 	H 	0.86581 0.84746 0.30438 0.00000
H 	H 	0.00551 0.88226 0.31272 0.04600
H 	H 	-0.03076 0.86960 0.35261 0.05100
H 	H 	0.12253 0.84831 0.33987 0.00100
H 	H 	0.11330 0.77609 0.34226 0.07300
H 	H 	0.03342 0.80520 0.37057 0.05700
H 	H 	0.12002 0.83675 0.27279 0.05000
H 	H 	0.15846 0.79092 0.28399 0.05100
H 	H 	0.13048 0.76409 0.21779 0.05000
H 	H 	0.04071 0.73247 0.20825 0.05200
H 	H 	-0.06760 0.74619 0.17119 0.04200
H 	H 	0.91988 0.86163 0.14021 0.03300
H 	H 	1.00587 0.91739 0.13896 0.06300
H 	H 	1.11154 0.91718 0.15515 0.04700
H 	H 	1.04544 0.96217 0.17329 0.05500
H 	H 	1.06061 0.91036 0.25102 0.05600
H 	H 	1.14438 0.91291 0.21938 0.04600
H 	H 	1.07879 0.95808 0.23803 0.05300
H 	H 	0.93346 0.96025 0.22115 0.05800
H 	H 	0.88648 0.92075 0.18486 0.06000
H 	H 	0.90710 0.91019 0.22855 0.06300
H 	H 	1.10957 0.84350 0.21537 0.03300
H 	H 	0.96002 0.83889 0.25274 0.06000
H 	H 	0.90111 0.79158 0.24652 0.05500
H 	H 	0.06793 0.72572 0.27508 0.06400
H 	H 	0.96160 0.72688 0.26129 0.04900
C 	C 	0.98492 0.36531 0.68318 -0.18200
C 	C 	0.03261 0.38347 0.72018 0.10900
C 	C 	0.12567 0.37095 0.71209 -0.14200
C 	C 	0.17879 0.38696 0.74685 0.05500
C 	C 	0.17153 0.43539 0.76087 -0.12700
C 	C 	1.07958 0.44839 0.76911 0.04900
C 	C 	1.02648 0.43222 0.73379 -0.14100
C 	C 	0.04728 0.42953 0.79968 -0.13800
C 	C 	0.05674 0.38045 0.78776 0.10500
C 	C 	0.02477 0.36068 0.81898 -0.15200
C 	C 	0.08139 0.35918 0.85190 0.06300
C 	C 	0.06466 0.32913 0.87133 -0.09300
C 	C 	0.11698 0.32481 0.90016 0.03800
C 	C 	0.18860 0.34942 0.90871 -0.06500
C 	C 	0.20652 0.38048 0.89062 -0.00200
C 	C 	0.28488 0.40830 0.90037 0.10100
C 	C 	0.26255 0.44841 0.93100 -0.19900
C 	C 	0.31791 0.42125 0.86636 -0.19600
C 	C 	0.35732 0.38501 0.91410 -0.20000
C 	C 	0.14797 0.38697 0.86460 -0.08300
C 	C 	0.14840 0.36677 0.77660 -0.14400
C 	C 	0.00220 0.36448 0.75180 -0.15200
H 	H 	1.02235 0.37012 0.65979 -0.00400
H 	H 	0.98029 0.33069 0.67835 0.06200
H 	H 	0.15022 0.38420 0.69004 0.03600
H 	H 	0.13248 0.33612 0.70205 0.04700
H 	H 	0.24490 0.37776 0.74016 0.00100
H 	H 	0.20985 0.44707 0.78625 0.04200
H 	H 	0.19631 0.44998 0.73977 0.03900
H 	H 	1.07493 0.48338 0.77876 -0.00300
H 	H 	0.96071 0.44247 0.73990 0.04400
H 	H 	1.04868 0.44651 0.71202 0.01900
H 	H 	0.08001 0.44482 0.82557 0.04700
H 	H 	0.98065 0.43846 0.80515 0.04600
H 	H 	-0.03524 0.37592 0.83008 0.05300
H 	H 	1.00879 0.32733 0.80508 0.05200
H 	H 	0.01069 0.30909 0.86402 0.04700
H 	H 	0.22801 0.34503 0.93067 0.04400
H 	H 	0.21440 0.46727 0.92119 0.05700
H 	H 	0.31839 0.46838 0.93956 0.05800
H 	H 	0.23791 0.44015 0.95564 0.06100
H 	H 	0.32451 0.39309 0.84222 0.06200
H 	H 	0.27647 0.44476 0.85874 0.05600
H 	H 	0.37989 0.43639 0.87220 0.05800
H 	H 	0.41570 0.40339 0.91696 0.05800
H 	H 	0.34474 0.38067 0.94176 0.06300
H 	H 	0.36913 0.35370 0.89430 0.06500
H 	H 	0.15660 0.41310 0.85359 0.04100
H 	H 	0.19319 0.37565 0.79951 0.05700
H 	H 	0.15252 0.33181 0.76620 0.05400
H 	H 	0.93575 0.37317 0.75815 0.05900
H 	H 	0.00531 0.32947 0.74200 0.05500
C 	C 	0.46028 0.21432 0.09854 -0.18300
C 	C 	0.51480 0.23873 0.13217 0.12200
C 	C 	0.59840 0.21396 0.13025 -0.14700
C 	C 	0.65631 0.23570 0.16235 0.05600
C 	C 	0.67468 0.28095 0.16064 -0.12800
C 	C 	0.59248 0.30589 0.16337 0.05600
C 	C 	0.53550 0.28446 0.13086 -0.14700
C 	C 	0.54940 0.30752 0.20032 -0.14600
C 	C 	0.53079 0.26223 0.20334 0.11200
C 	C 	0.48593 0.26333 0.24086 -0.15600
C 	C 	0.54293 0.26536 0.27399 0.05600
C 	C 	0.54982 0.23090 0.28958 -0.08900
C 	C 	0.60681 0.23243 0.31840 -0.01500
C 	C 	0.66032 0.26683 0.32948 -0.04900
C 	C 	0.65807 0.30026 0.31330 -0.01200
C 	C 	0.73484 0.32883 0.31693 0.10200
C 	C 	0.77164 0.33969 0.35669 -0.20200
C 	C 	0.71455 0.37039 0.30705 -0.19800
C 	C 	0.80125 0.30439 0.28962 -0.19600
C 	C 	0.59310 0.30091 0.28821 -0.08000
C 	C 	0.61407 0.23690 0.19925 -0.14500
C 	C 	0.47290 0.24070 0.16998 -0.16400
H 	H 	0.49935 0.20721 0.07327 0.05900
H 	H 	0.44128 0.18353 0.10250 0.06000
H 	H 	0.63076 0.21163 0.10368 0.04600
H 	H 	0.58641 0.18119 0.13142 0.04900
H 	H 	0.71583 0.21772 0.16017 -0.00500
H 	H 	0.71703 0.29685 0.18359 0.02700
H 	H 	0.70669 0.28023 0.13435 0.03200
H 	H 	0.60566 0.33862 0.16229 -0.00300
H 	H 	0.47964 0.30477 0.13305 0.05700
H 	H 	0.56605 0.28392 0.10433 0.04800
H 	H 	0.59189 0.32447 0.22231 0.05000
H 	H 	0.49086 0.32637 0.20291 0.05200
H 	H 	0.44139 0.29037 0.24822 0.05700
H 	H 	0.44699 0.23467 0.23642 0.05200
H 	H 	0.51302 0.20291 0.27870 0.02600
H 	H 	0.70939 0.26533 0.34882 0.04700
H 	H 	0.72138 0.34416 0.37743 0.06400
H 	H 	0.80987 0.36870 0.36313 0.05700
H 	H 	0.81272 0.31406 0.36093 0.06500
H 	H 	0.70094 0.36443 0.27709 0.05300
H 	H 	0.66004 0.38647 0.32301 0.05900
H 	H 	0.76844 0.39208 0.31302 0.05200
H 	H 	0.85816 0.32356 0.29069 0.04700
H 	H 	0.81898 0.27461 0.29630 0.06200
H 	H 	0.77679 0.29592 0.26087 0.05100
H 	H 	0.58359 0.32825 0.27848 0.03900
H 	H 	0.65793 0.25152 0.22193 0.05600
H 	H 	0.60241 0.20425 0.20079 0.05400
H 	H 	0.41296 0.25824 0.17246 0.07300
H 	H 	0.45797 0.20820 0.17093 0.05600
C 	C 	0.54942 0.77834 0.91141 -0.18200
C 	C 	0.53235 0.75083 0.87111 0.12500
C 	C 	0.61481 0.73102 0.85284 -0.16200
C 	C 	0.59823 0.69959 0.81516 0.06900
C 	C 	0.53488 0.66588 0.81802 -0.13400
C 	C 	0.45218 0.68747 0.83336 0.06000
C 	C 	0.46751 0.71633 0.87223 -0.14900
C 	C 	0.41818 0.71387 0.80831 -0.14400
C 	C 	0.48183 0.74808 0.80515 0.10800
C 	C 	0.44293 0.77260 0.77832 -0.15000
C 	C 	0.49678 0.79717 0.75783 0.04900
C 	C 	0.45931 0.83089 0.74732 -0.05800
C 	C 	0.48275 0.83867 0.71357 -0.05200
C 	C 	0.56406 0.82780 0.70081 -0.04200
C 	C 	0.61253 0.80187 0.71736 -0.02100
C 	C 	0.70314 0.78971 0.70686 0.11100
C 	C 	0.70430 0.75511 0.67045 -0.20800
C 	C 	0.74919 0.77186 0.73572 -0.20300
C 	C 	0.75123 0.82893 0.70406 -0.20300
C 	C 	0.56925 0.78031 0.73847 -0.07000
C 	C 	0.56412 0.72473 0.78996 -0.14800
C 	C 	0.49688 0.77732 0.84535 -0.16100
H 	H 	0.48997 0.79274 0.92395 0.06300
H 	H 	0.59096 0.80461 0.91006 0.06600
H 	H 	0.64914 0.71538 0.86984 0.08500
H 	H 	0.65770 0.75615 0.84964 0.06000
H 	H 	0.65746 0.68396 0.80337 0.01000
H 	H 	0.52456 0.64354 0.79031 0.04700
H 	H 	0.55966 0.64722 0.83634 0.05400
H 	H 	0.40595 0.66305 0.83472 -0.00000
H 	H 	0.40781 0.73134 0.88401 0.05000
H 	H 	0.48822 0.69638 0.89004 0.06000
H 	H 	0.40418 0.69234 0.78059 0.04900
H 	H 	0.35832 0.72910 0.81971 0.04900
H 	H 	0.40806 0.74983 0.75608 0.05600
H 	H 	0.39438 0.79429 0.79424 0.05200
H 	H 	0.39783 0.84140 0.75803 0.03800
H 	H 	0.58558 0.83522 0.67615 -0.01600
H 	H 	0.67353 0.72693 0.67479 0.06200
H 	H 	0.76876 0.74512 0.66135 0.06100
H 	H 	0.67025 0.76592 0.64904 0.06200
H 	H 	0.74929 0.79493 0.76342 0.06200
H 	H 	0.72329 0.74158 0.73791 0.05900
H 	H 	0.81404 0.76384 0.72666 0.05900
H 	H 	0.81790 0.82108 0.69873 0.05900
H 	H 	0.72742 0.84129 0.68147 0.05300
H 	H 	0.74620 0.85464 0.73022 0.05600
H 	H 	0.58878 0.74855 0.73497 0.03900
H 	H 	0.55381 0.70255 0.76214 0.05100
H 	H 	0.61326 0.74792 0.78929 0.05500
H 	H 	0.43757 0.79299 0.85696 0.05400
H 	H 	0.54094 0.80275 0.84421 0.05700
C 	C 	0.40056 0.79397 0.40270 -0.17600
C 	C 	0.42584 0.75544 0.36776 0.11700
C 	C 	0.52146 0.74909 0.36842 -0.14800
C 	C 	0.54997 0.71339 0.33498 0.06100
C 	C 	0.50930 0.67138 0.33491 -0.13500
C 	C 	0.41481 0.67646 0.33299 0.06000
C 	C 	0.38584 0.71170 0.36632 -0.14800
C 	C 	0.38894 0.68806 0.29737 -0.14600
C 	C 	0.42988 0.73021 0.29593 0.11000
C 	C 	0.40143 0.74066 0.25868 -0.15300
C 	C 	0.46593 0.75776 0.23690 0.05600
C 	C 	0.45235 0.79488 0.22520 -0.08900
C 	C 	0.51095 0.80623 0.20173 0.00400
C 	C 	0.58618 0.78325 0.19450 -0.05200
C 	C 	0.60551 0.75192 0.21173 -0.01100
C 	C 	0.69351 0.75040 0.22722 0.11400
C 	C 	0.75845 0.74480 0.19638 -0.21300
C 	C 	0.70788 0.71468 0.24602 -0.20900
C 	C 	0.70616 0.79311 0.25677 -0.21000
C 	C 	0.53911 0.73434 0.22536 -0.07900
C 	C 	0.52517 0.72405 0.29928 -0.14800
C 	C 	0.40204 0.76591 0.33070 -0.15900
H 	H 	0.45592 0.80595 0.42015 0.06000
H 	H 	0.37793 0.82095 0.39280 0.06000
H 	H 	0.54047 0.74128 0.39426 0.04900
H 	H 	0.55354 0.77872 0.36801 0.04800
H 	H 	0.61878 0.70989 0.33587 -0.00800
H 	H 	0.53094 0.64574 0.31074 0.04300
H 	H 	0.52677 0.66207 0.36007 0.04300
H 	H 	0.38483 0.64632 0.33346 -0.00100
H 	H 	0.31855 0.71262 0.36154 0.06200
H 	H 	0.39833 0.70259 0.39221 0.04800
H 	H 	0.40805 0.66195 0.27305 0.04900
H 	H 	0.31988 0.69064 0.29608 0.05500
H 	H 	0.37721 0.71151 0.23904 0.05000
H 	H 	0.34707 0.76251 0.26456 0.05100
H 	H 	0.39685 0.81395 0.23352 0.03000
H 	H 	0.63489 0.79449 0.18024 0.05200
H 	H 	0.76100 0.77347 0.18673 0.07900
H 	H 	0.74716 0.71626 0.17286 0.06900
H 	H 	0.82057 0.74150 0.20785 0.06400
H 	H 	0.67592 0.72119 0.27284 0.06100
H 	H 	0.68643 0.68447 0.22788 0.06100
H 	H 	0.77472 0.71129 0.25236 0.05600
H 	H 	0.76958 0.79630 0.26779 0.06500
H 	H 	0.69319 0.82051 0.24562 0.07600
H 	H 	0.66482 0.79617 0.28093 0.06500
H 	H 	0.54437 0.70205 0.22585 0.03800
H 	H 	0.54587 0.69622 0.27741 0.05200
H 	H 	0.55795 0.75300 0.29805 0.05600
H 	H 	0.33358 0.77076 0.32990 0.05900
H 	H 	0.43175 0.79593 0.32982 0.05600
C 	C 	0.45471 0.19053 0.82156 -0.18100
C 	C 	0.50661 0.22763 0.81426 0.11300
C 	C 	0.45230 0.26684 0.81342 -0.14600
C 	C 	0.50621 0.30171 0.80526 0.05900
C 	C 	0.57452 0.31499 0.83475 -0.13100
C 	C 	0.62959 0.27644 0.83474 0.05500
C 	C 	0.57539 0.24214 0.84401 -0.14400
C 	C 	0.67014 0.25914 0.79610 -0.14300
C 	C 	0.60209 0.24551 0.76561 0.11000
C 	C 	0.64395 0.22701 0.72651 -0.15500
C 	C 	0.59725 0.23426 0.69328 0.05900
C 	C 	0.63606 0.25354 0.66871 -0.07500
C 	C 	0.59139 0.26076 0.63871 -0.00000
C 	C 	0.50505 0.25462 0.63684 -0.04800
C 	C 	0.46409 0.23831 0.66303 -0.01000
C 	C 	0.36842 0.23948 0.66618 0.10500
C 	C 	0.33642 0.28425 0.66744 -0.20300
C 	C 	0.33573 0.23001 0.70193 -0.19800
C 	C 	0.33306 0.20663 0.63252 -0.20400
C 	C 	0.51389 0.22249 0.68696 -0.07900
C 	C 	0.54657 0.28506 0.76710 -0.14700
C 	C 	0.54998 0.21090 0.77619 -0.15900
H 	H 	0.49487 0.17116 0.83488 -0.00900
H 	H 	0.43430 0.16875 0.79493 0.04900
H 	H 	0.42099 0.28018 0.84046 0.06100
H 	H 	0.40313 0.25760 0.79193 0.06000
H 	H 	0.46606 0.32950 0.80554 0.00200
H 	H 	0.61325 0.34025 0.82905 0.04700
H 	H 	0.54507 0.32835 0.86210 0.04700
H 	H 	0.67927 0.28613 0.85597 0.00300
H 	H 	0.61583 0.21514 0.84563 0.03300
H 	H 	0.54612 0.25465 0.87158 0.04000
H 	H 	0.71024 0.28390 0.79031 0.05100
H 	H 	0.71159 0.23198 0.79628 0.04700
H 	H 	0.70747 0.24015 0.72703 0.05400
H 	H 	0.65369 0.19249 0.72140 0.05000
H 	H 	0.70082 0.26248 0.67276 0.04900
H 	H 	0.46990 0.26417 0.61589 0.03200
H 	H 	0.36691 0.30795 0.69038 0.06300
H 	H 	0.34939 0.29256 0.64150 0.06100
H 	H 	0.26857 0.28757 0.67252 0.05900
H 	H 	0.35015 0.19710 0.70242 0.05900
H 	H 	0.36259 0.25263 0.72676 0.06100
H 	H 	0.26680 0.23382 0.70416 0.05900
H 	H 	0.26615 0.20156 0.63616 0.06000
H 	H 	0.34114 0.21675 0.60694 0.06100
H 	H 	0.36545 0.17585 0.62914 0.06300
H 	H 	0.48625 0.20417 0.70300 0.04000
H 	H 	0.58447 0.31018 0.76067 0.05700
H 	H 	0.49547 0.27804 0.74677 0.05900
H 	H 	0.59146 0.18382 0.77694 0.04700
H 	H 	0.50187 0.19805 0.75539 0.05400
C 	C 	0.06716 0.73257 0.64496 -0.17200
C 	C 	0.06050 0.75825 0.68751 0.11400
C 	C 	0.14949 0.76189 0.70399 -0.15500
C 	C 	0.15191 0.79127 0.74312 0.06400
C 	C 	0.11670 0.83498 0.74331 -0.13200
C 	C 	0.02517 0.83072 0.73062 0.05900
C 	C 	0.01860 0.80220 0.69103 -0.14600
C 	C 	-0.02526 0.81107 0.75589 -0.14300
C 	C 	0.00811 0.76615 0.75514 0.10100
C 	C 	-0.05266 0.75012 0.78175 -0.14500
C 	C 	-0.02700 0.72233 0.80680 0.04000
C 	C 	-0.08678 0.69380 0.81325 -0.05100
C 	C 	-0.07800 0.67557 0.84287 -0.05300
C 	C 	-0.00400 0.68189 0.86326 -0.00900
C 	C 	0.05597 0.71071 0.85864 -0.03200
C 	C 	0.13549 0.71705 0.88278 0.09900
C 	C 	0.11303 0.73324 0.92416 -0.18700
C 	C 	0.19669 0.74883 0.87382 -0.19700
C 	C 	0.18114 0.67414 0.87594 -0.19000
C 	C 	0.03963 0.73302 0.83218 -0.06300
C 	C 	0.09984 0.77223 0.76873 -0.14400
C 	C 	0.00818 0.73728 0.71333 -0.15300
H 	H 	0.00388 0.72563 0.63330 0.05700
H 	H 	0.09818 0.70179 0.64325 0.05900
H 	H 	0.19268 0.77336 0.68702 0.08000
H 	H 	0.17364 0.73014 0.70436 0.05500
H 	H 	0.21780 0.79442 0.75268 0.00600
H 	H 	0.12088 0.85644 0.77172 0.04600
H 	H 	0.15405 0.84920 0.72504 0.04900
H 	H 	-0.00105 0.86254 0.73210 -0.00200
H 	H 	-0.04782 0.79738 0.68301 0.04900
H 	H 	0.04228 0.81966 0.67230 0.05600
H 	H 	-0.02354 0.83251 0.78451 0.04900
H 	H 	-0.09126 0.80980 0.74753 0.04900
H 	H 	-0.08084 0.77808 0.80179 0.05300
H 	H 	-0.10640 0.73533 0.76471 0.05000
H 	H 	0.85530 0.68952 0.79784 0.03700
H 	H 	0.00442 0.66638 0.88478 -0.10500
H 	H 	0.07852 0.76373 0.92989 0.06300
H 	H 	0.17021 0.73814 0.94153 0.05400
H 	H 	0.07442 0.71016 0.93307 0.02400
H 	H 	0.21299 0.73947 0.84402 0.05900
H 	H 	0.16956 0.78122 0.88137 0.06000
H 	H 	0.25535 0.75010 0.88985 0.05700
H 	H 	0.24284 0.67772 0.88982 0.05400
H 	H 	0.14494 0.65161 0.88686 0.03000
H 	H 	0.19066 0.65997 0.84584 0.05600
H 	H 	0.07600 0.76015 0.83311 0.03800
H 	H 	0.10303 0.79517 0.79636 0.05200
H 	H 	0.12832 0.74174 0.76985 0.05300
H 	H 	-0.05633 0.73149 0.70255 0.05000
H 	H 	0.03550 0.70591 0.71253 0.05300
