data_crystal

_cell_length_a 15.63790
_cell_length_b 34.55260
_cell_length_c 36.85800
_cell_angle_alpha 118.82720
_cell_angle_beta  92.41990
_cell_angle_gamma 88.30390

_symmetry_space_group_name_	'P 1'
_symmetry_space_group_name_H-M	'P 1'

loop_
_symmetry_equiv_pos_as_xyz
  x,y,z

loop_
_atom_site_label
_atom_site_type_symbol
_atom_site_fract_x
_atom_site_fract_y
_atom_site_fract_z
_atom_site_charge
Mn	Mn	0.56247 0.15042 0.36107 1.20600
Mn	Mn	0.75201 0.17342 0.41887 1.27000
Mn	Mn	0.90249 0.42163 0.66118 1.21200
Mn	Mn	0.70925 0.37263 0.61852 1.27200
Mn	Mn	0.72809 0.27025 0.52099 1.27200
C 	C 	0.68063 0.17784 0.31290 0.07100
N 	N 	0.66623 0.16860 0.34368 -0.26000
N 	N 	0.74052 0.17169 0.36296 -0.19800
N 	N 	0.80134 0.17854 0.34311 -0.06700
N 	N 	0.76565 0.18314 0.31212 -0.09200
N 	N 	0.88036 0.23718 0.42100 -0.11400
N 	N 	0.82323 0.22851 0.44157 -0.20800
N 	N 	0.80419 0.26494 0.47571 -0.19900
N 	N 	0.84827 0.29846 0.47877 -0.10900
C 	C 	0.89460 0.28102 0.44438 0.14800
C 	C 	0.80426 0.15687 0.52105 0.10300
N 	N 	0.76462 0.17335 0.47448 -0.19100
N 	N 	0.79371 0.13967 0.47940 -0.09100
N 	N 	0.62902 0.24138 0.47773 -0.23300
N 	N 	0.64679 0.21229 0.43902 -0.19800
N 	N 	0.57979 0.20653 0.41430 -0.21500
N 	N 	0.51707 0.23278 0.43512 -0.13100
N 	N 	0.76084 0.20940 0.51105 -0.20100
N 	N 	0.78378 0.20020 0.54081 -0.09500
C 	C 	0.54551 0.25344 0.47497 0.15100
N 	N 	0.82802 0.39974 0.69083 -0.26200
N 	N 	0.75389 0.38078 0.67463 -0.19500
N 	N 	0.71695 0.37032 0.70034 -0.05700
N 	N 	0.76741 0.38237 0.73396 -0.09700
N 	N 	0.60413 0.31169 0.63038 -0.10500
N 	N 	0.65382 0.31540 0.60455 -0.21300
N 	N 	0.65621 0.27800 0.56919 -0.19600
N 	N 	0.60887 0.24786 0.57150 -0.09800
N 	N 	0.64767 0.33162 0.49659 -0.11200
N 	N 	0.68694 0.32921 0.52776 -0.19900
N 	N 	0.66975 0.36487 0.56286 -0.19900
N 	N 	0.61690 0.39143 0.55582 -0.11400
N 	N 	0.83097 0.30081 0.56320 -0.21900
N 	N 	0.81907 0.34126 0.59453 -0.20100
N 	N 	0.89227 0.36075 0.61125 -0.21000
N 	N 	-0.04410 0.33398 0.59269 -0.12300
Cl	Cl	0.65497 0.11814 0.39072 -0.76700
Cl	Cl	0.77844 0.43613 0.63494 -0.78100
C 	C 	0.83703 0.40037 0.72764 0.12400
C 	C 	0.57689 0.26979 0.61005 0.09600
C 	C 	0.60480 0.37018 0.51414 0.14800
C 	C 	0.91950 0.29634 0.56296 0.10300
Mn	Mn	0.01000 0.60627 0.36976 1.20300
Mn	Mn	0.21090 0.64918 0.40841 1.27100
Mn	Mn	0.36182 0.84337 0.67737 1.19900
Mn	Mn	0.17413 0.82553 0.62001 1.27000
Mn	Mn	0.19956 0.74298 0.51220 1.27200
C 	C 	0.06252 0.64098 0.31257 0.11100
N 	N 	0.08309 0.63157 0.34284 -0.26700
N 	N 	0.15958 0.64819 0.35706 -0.20200
N 	N 	0.18760 0.66669 0.33567 -0.06600
N 	N 	0.12795 0.66246 0.30732 -0.10400
N 	N 	0.31313 0.71841 0.40335 -0.12000
N 	N 	0.26936 0.70824 0.42758 -0.20800
N 	N 	0.26538 0.74276 0.46523 -0.19500
N 	N 	0.30237 0.77695 0.46595 -0.10300
C 	C 	0.33263 0.76140 0.42752 0.15100
C 	C 	0.29624 0.62689 0.50159 0.09500
N 	N 	0.25514 0.64864 0.45947 -0.20500
N 	N 	0.28513 0.61321 0.46080 -0.09700
N 	N 	0.09743 0.71730 0.47149 -0.24000
N 	N 	0.10328 0.67949 0.43718 -0.19900
N 	N 	0.02645 0.66449 0.42162 -0.21700
N 	N 	0.96690 0.69296 0.44405 -0.13000
N 	N 	0.24665 0.68182 0.49714 -0.19600
N 	N 	0.27203 0.66944 0.52473 -0.09300
C 	C 	0.01150 0.72580 0.47562 0.14800
N 	N 	0.25929 0.81517 0.68645 -0.25900
N 	N 	0.18480 0.81680 0.66965 -0.20500
N 	N 	0.12255 0.80940 0.68846 -0.06800
N 	N 	0.15705 0.80010 0.71675 -0.09100
N 	N 	0.05995 0.75385 0.60923 -0.11600
N 	N 	0.10694 0.76998 0.59064 -0.21500
N 	N 	0.12762 0.73823 0.55391 -0.20100
N 	N 	0.09230 0.70079 0.54657 -0.10900
N 	N 	0.14744 0.82394 0.50687 -0.10900
N 	N 	0.15926 0.80557 0.53099 -0.20200
N 	N 	0.15998 0.83631 0.57041 -0.20300
N 	N 	0.14815 0.87565 0.57331 -0.11100
N 	N 	0.29852 0.76953 0.55567 -0.22600
N 	N 	0.28219 0.78921 0.59564 -0.19500
N 	N 	0.35452 0.79722 0.61755 -0.21600
N 	N 	0.42001 0.78497 0.59292 -0.12300
Cl	Cl	0.13773 0.58568 0.38807 -0.79600
Cl	Cl	0.26616 0.88218 0.65611 -0.78300
C 	C 	0.24278 0.80273 0.71487 0.06300
C 	C 	0.05176 0.71063 0.58145 0.14800
C 	C 	0.13878 0.86747 0.53367 0.14700
C 	C 	0.38578 0.76823 0.55404 0.09400
Mn	Mn	0.18979 0.39804 0.19044 1.20900
Mn	Mn	0.34287 0.33604 0.12172 1.27100
Mn	Mn	0.34658 0.11022 0.85919 1.20200
Mn	Mn	0.17767 0.17178 0.91807 1.27200
Mn	Mn	0.25350 0.26038 0.01879 1.26700
C 	C 	0.24379 0.33140 0.21843 0.07000
N 	N 	0.26238 0.35342 0.19823 -0.25700
N 	N 	0.32505 0.33117 0.17365 -0.19800
N 	N 	0.34794 0.29747 0.17970 -0.06100
N 	N 	0.29798 0.29667 0.20759 -0.09000
N 	N 	0.42839 0.25134 0.10242 -0.11900
N 	N 	0.37061 0.27210 0.09058 -0.21500
N 	N 	0.33287 0.24444 0.05529 -0.19500
N 	N 	0.36461 0.20420 0.04297 -0.11000
C 	C 	0.42286 0.20868 0.07292 0.14400
C 	C 	0.36782 0.37153 0.03241 0.13900
N 	N 	0.35600 0.34146 0.06991 -0.20200
N 	N 	0.38304 0.37782 0.07110 -0.10800
N 	N 	0.18036 0.30061 0.06942 -0.22500
N 	N 	0.21712 0.32424 0.10670 -0.19700
N 	N 	0.15956 0.34834 0.13379 -0.21400
N 	N 	1.08304 0.34120 0.11603 -0.10900
N 	N 	0.32362 0.31448 0.03247 -0.20200
N 	N 	0.32932 0.33248 0.00812 -0.11100
C 	C 	0.09520 0.31136 0.07599 0.08700
N 	N 	0.27005 0.14699 0.84221 -0.26400
N 	N 	0.19850 0.16445 0.86146 -0.19900
N 	N 	0.14131 0.16753 0.83557 -0.06900
N 	N 	0.17780 0.15474 0.79962 -0.10200
N 	N 	0.10756 0.25159 0.91743 -0.10700
N 	N 	0.14499 0.23657 0.94107 -0.20800
N 	N 	0.17417 0.26985 0.97660 -0.18700
N 	N 	0.15682 0.30763 0.97630 -0.09200
N 	N 	0.16632 0.19852 0.03855 -0.10800
N 	N 	0.18303 0.20803 0.00890 -0.20300
N 	N 	0.15635 0.17599 0.97283 -0.20200
N 	N 	0.12001 0.14482 0.97763 -0.11000
N 	N 	0.33077 0.22186 0.97043 -0.23300
N 	N 	0.30069 0.18896 0.93551 -0.19700
N 	N 	0.36432 0.16610 0.91211 -0.21900
N 	N 	0.43817 0.18383 0.92966 -0.13100
Cl	Cl	0.30401 0.40808 0.15937 -0.79100
Cl	Cl	0.22917 0.10147 0.89074 -0.78600
C 	C 	0.25943 0.14340 0.80444 0.10400
C 	C 	0.11431 0.29577 0.93951 0.09400
C 	C 	0.12721 0.15911 0.01872 0.14600
C 	C 	0.41778 0.21882 -0.03382 0.13500
Mn	Mn	0.58512 0.87795 0.15557 1.22400
Mn	Mn	0.79154 0.84736 0.12474 1.27100
Mn	Mn	1.03634 0.63415 0.88730 1.21100
Mn	Mn	0.83008 0.65557 0.91984 1.27700
Mn	Mn	0.80321 0.75016 0.02239 1.26800
C 	C 	0.65844 0.85674 0.22238 0.09000
N 	N 	0.66856 0.86128 0.18861 -0.25100
N 	N 	0.74712 0.84782 0.17650 -0.19400
N 	N 	0.78577 0.83528 0.20184 -0.05800
N 	N 	0.73183 0.84057 0.23100 -0.09100
N 	N 	0.92131 0.79155 0.13766 -0.10900
N 	N 	0.86565 0.79447 0.11123 -0.21500
N 	N 	0.86546 0.75774 0.07523 -0.19900
N 	N 	0.92048 0.72892 0.07725 -0.09900
C 	C 	0.95445 0.75064 0.11625 0.09200
C 	C 	0.89101 0.86400 0.03196 0.09200
N 	N 	0.83168 0.84767 0.07339 -0.19700
N 	N 	0.87033 0.88072 0.07220 -0.10000
N 	N 	0.69113 0.77333 0.05460 -0.22500
N 	N 	0.69283 0.80799 0.09246 -0.19900
N 	N 	0.61505 0.81909 0.10661 -0.21100
N 	N 	0.55925 0.79243 0.07910 -0.11900
N 	N 	0.83093 0.81254 0.03639 -0.20100
N 	N 	0.86696 0.82157 0.00973 -0.10100
C 	C 	0.60526 0.76430 0.04612 0.10100
N 	N 	0.94453 0.65052 0.85689 -0.25600
N 	N 	0.86568 0.65929 0.86979 -0.19900
N 	N 	0.81788 0.67029 0.84568 -0.06200
N 	N 	0.86578 0.66924 0.81641 -0.09200
N 	N 	0.69853 0.70939 0.90630 -0.11700
N 	N 	0.74950 0.70647 0.93403 -0.20900
N 	N 	0.74236 0.74226 0.97014 -0.19500
N 	N 	0.68519 0.76970 0.96708 -0.10500
N 	N 	0.72064 0.67121 0.02346 -0.09500
N 	N 	0.77496 0.68550 0.00568 -0.19500
N 	N 	0.79799 0.65192 0.96996 -0.19500
N 	N 	0.76328 0.61533 0.96423 -0.09700
N 	N 	0.91776 0.72980 0.99083 -0.22900
N 	N 	0.92211 0.69587 0.95303 -0.20400
N 	N 	1.00074 0.68847 0.93992 -0.21000
N 	N 	0.05144 0.71822 0.96801 -0.12900
Cl	Cl	0.70035 0.90481 0.13915 -0.78300
Cl	Cl	0.92980 0.60068 0.90250 -0.77200
C 	C 	0.94464 0.65704 0.82378 0.08400
C 	C 	0.65800 0.74826 0.92694 0.15800
C 	C 	0.71446 0.62697 -0.00303 0.07700
C 	C 	1.00053 0.74444 -0.00035 0.15100
C 	C 	0.48004 0.27030 0.50881 -0.19700
C 	C 	0.39661 0.24104 0.49550 0.12200
C 	C 	0.33770 0.25331 0.46717 -0.14700
C 	C 	0.25732 0.22484 0.45269 0.05600
C 	C 	0.28280 0.17554 0.42916 -0.12600
C 	C 	0.33674 0.16297 0.45806 0.05200
C 	C 	0.41854 0.19031 0.47298 -0.14100
C 	C 	0.28555 0.17182 0.49571 -0.14700
C 	C 	0.25961 0.22142 0.52017 0.11700
C 	C 	0.20808 0.22921 0.55886 -0.17100
C 	C 	0.11258 0.22215 0.54944 0.09600
C 	C 	0.05837 0.25895 0.56235 -0.09700
C 	C 	-0.02447 0.25586 0.54443 0.02100
C 	C 	-0.04633 0.21567 0.51010 -0.11900
C 	C 	0.00334 0.17733 0.49889 0.16700
O 	O 	-0.02517 0.13792 0.46430 -0.22600
C 	C 	0.03129 0.10051 0.44803 -0.01400
C 	C 	0.08006 0.18047 0.52155 -0.15000
C 	C 	0.20592 0.23405 0.49056 -0.14700
C 	C 	0.34349 0.24968 0.53385 -0.16600
H 	H 	0.50786 0.27190 0.53716 0.07200
H 	H 	0.46276 0.30485 0.51673 0.06300
H 	H 	0.31858 0.28881 0.48444 0.05000
H 	H 	0.36934 0.24902 0.43923 0.05000
H 	H 	0.21743 0.23343 0.43179 -0.00000
H 	H 	0.31991 0.16882 0.40160 0.01800
H 	H 	0.22428 0.15499 0.41777 0.04200
H 	H 	0.35412 0.12728 0.44095 -0.00300
H 	H 	0.45698 0.17875 0.44529 0.03600
H 	H 	0.45667 0.18188 0.49445 0.06000
H 	H 	0.32435 0.16190 0.51597 0.05400
H 	H 	0.22933 0.15016 0.48396 0.05500
H 	H 	0.23242 0.20750 0.57161 0.06100
H 	H 	0.21905 0.26352 0.58407 0.06000
H 	H 	0.08321 0.29055 0.58545 0.04600
H 	H 	0.90015 0.21387 0.49103 0.05400
H 	H 	0.09105 0.10820 0.43759 0.02200
H 	H 	-0.00095 0.07297 0.42085 0.02600
H 	H 	0.04596 0.08935 0.47128 0.02700
H 	H 	0.11781 0.15152 0.51530 0.06500
H 	H 	0.14651 0.21448 0.47857 0.06300
H 	H 	0.18662 0.26951 0.50735 0.05500
H 	H 	0.38299 0.24076 0.55451 0.06400
H 	H 	0.32695 0.28543 0.55187 0.05600
C 	C 	-0.02799 0.76931 0.50587 -0.19900
C 	C 	0.88076 0.76925 0.52146 0.13000
C 	C 	0.87529 0.73595 0.53801 -0.15700
C 	C 	0.78742 0.73919 0.55678 0.06000
C 	C 	0.77449 0.78620 0.59297 -0.13100
C 	C 	0.77787 0.81977 0.57680 0.05800
C 	C 	0.86502 0.81662 0.55795 -0.14800
C 	C 	0.70733 0.80987 0.54330 -0.14500
C 	C 	0.71804 0.76212 0.50636 0.11200
C 	C 	0.64585 0.75031 0.47184 -0.16700
C 	C 	0.56047 0.77242 0.48840 0.09000
C 	C 	0.50243 0.75445 0.50439 -0.10000
C 	C 	0.43200 0.77971 0.52662 0.01900
C 	C 	0.42143 0.82325 0.53330 -0.11400
C 	C 	0.47670 0.84108 0.51657 0.16000
O 	O 	0.46026 0.88471 0.52422 -0.21800
C 	C 	0.52294 0.90574 0.51275 -0.01600
C 	C 	0.54537 0.81488 0.49328 -0.15200
C 	C 	0.71580 0.72899 0.52352 -0.14500
C 	C 	0.80804 0.75864 0.48777 -0.16300
H 	H 	-0.02800 0.79147 0.49185 0.06700
H 	H 	0.01529 0.78388 0.53346 0.05400
H 	H 	0.88673 0.70157 0.51307 0.05700
H 	H 	0.92475 0.74417 0.56261 0.06800
H 	H 	0.78501 0.71493 0.56837 -0.00100
H 	H 	0.82530 0.79363 0.61742 0.04200
H 	H 	0.71194 0.78875 0.60729 0.03800
H 	H 	0.76851 0.85370 0.60293 -0.00300
H 	H 	0.91581 0.82553 0.58272 0.04300
H 	H 	0.86736 0.84136 0.54685 0.05000
H 	H 	0.71008 0.83449 0.53209 0.05400
H 	H 	0.64476 0.81403 0.55805 0.05600
H 	H 	0.66601 0.76028 0.44896 0.05200
H 	H 	0.63723 0.71396 0.45368 0.04900
H 	H 	0.51486 0.72220 0.50177 0.04400
H 	H 	0.37111 0.84419 0.55296 0.07200
H 	H 	0.58437 0.90861 0.53014 0.02500
H 	H 	0.50000 0.93949 0.52079 0.03000
H 	H 	0.53220 0.88763 0.47879 0.02300
H 	H 	0.59070 0.82790 0.48070 0.06000
H 	H 	0.65295 0.73100 0.53738 0.05200
H 	H 	0.72388 0.69454 0.49808 0.04400
H 	H 	0.81152 0.78194 0.47506 0.05500
H 	H 	0.81661 0.72479 0.46153 0.05400
C 	C 	0.48481 0.24889 0.99720 -0.19100
C 	C 	0.58020 0.24013 0.98339 0.13000
C 	C 	0.61275 0.19270 0.97256 -0.14600
C 	C 	0.70729 0.18664 0.96021 0.05400
C 	C 	0.71595 0.19416 0.92251 -0.12900
C 	C 	0.68696 0.24163 0.93390 0.05800
C 	C 	0.59236 0.24847 0.94602 -0.14900
C 	C 	0.74288 0.27492 0.97057 -0.15000
C 	C 	0.73407 0.26778 1.00884 0.12900
C 	C 	0.78727 0.30125 0.04742 -0.18400
C 	C 	0.87401 0.31250 0.03846 0.10800
C 	C 	0.94965 0.29378 0.04568 -0.11300
C 	C 	1.02990 0.31158 0.04650 0.03800
C 	C 	0.03282 0.34812 0.03968 -0.14900
C 	C 	0.95868 0.36740 1.03280 0.19800
O 	O 	-0.03218 0.40786 1.03285 -0.22300
C 	C 	0.89267 0.43275 1.03415 0.00000
C 	C 	0.87924 0.34854 0.03106 -0.18000
C 	C 	0.76314 0.21994 0.99689 -0.14300
C 	C 	0.63784 0.27339 0.02013 -0.17700
H 	H 	0.48107 0.24685 0.02607 0.06100
H 	H 	0.46844 0.28317 1.00440 0.06900
H 	H 	0.60610 0.18698 0.99948 0.05200
H 	H 	0.57612 0.16648 0.94644 0.04700
H 	H 	0.72899 0.15252 0.95194 -0.00100
H 	H 	0.67635 0.16994 0.89582 0.03400
H 	H 	0.78356 0.18880 0.91280 0.04300
H 	H 	0.69419 0.24700 0.90677 0.00300
H 	H 	0.55248 0.22600 0.91868 0.05300
H 	H 	0.57211 0.28281 0.95419 0.05400
H 	H 	0.72323 0.30911 0.97816 0.05600
H 	H 	0.81055 0.27009 0.96088 0.06200
H 	H 	0.75013 0.33265 0.06382 0.05700
H 	H 	0.79492 0.28908 0.07038 0.06100
H 	H 	0.94532 0.26929 0.05592 0.05500
H 	H 	0.09241 0.36573 1.04550 0.08100
H 	H 	0.85381 0.41487 1.00500 0.03000
H 	H 	-0.08764 0.46466 1.03713 0.03700
H 	H 	-0.14486 0.44019 1.06174 0.01900
H 	H 	0.82042 0.36345 1.02698 0.07300
H 	H 	0.83154 0.21493 0.98835 0.05500
H 	H 	0.75762 0.21367 0.02362 0.04600
H 	H 	0.61624 0.30775 0.02901 0.05300
H 	H 	0.63051 0.26866 0.04766 0.05400
C 	C 	1.03594 0.78390 0.03839 -0.20900
C 	C 	0.13380 0.78036 0.04714 0.13300
C 	C 	0.16115 0.82003 0.08952 -0.15300
C 	C 	0.25782 0.81630 0.09891 0.05900
C 	C 	0.27542 0.77296 0.10034 -0.13800
C 	C 	0.24839 0.73351 0.05850 0.06700
C 	C 	0.15290 0.73713 0.04949 -0.15600
C 	C 	0.29965 0.73312 0.02364 -0.15500
C 	C 	0.28626 0.77725 0.02180 0.11600
C 	C 	0.33709 0.77778 0.98602 -0.16700
C 	C 	0.41940 0.75147 0.97695 0.09300
C 	C 	0.49139 0.77038 0.00212 -0.10100
C 	C 	0.55806 0.74402 0.00547 0.01300
C 	C 	0.55860 0.69862 0.97704 -0.10000
C 	C 	0.49001 0.67925 0.94826 0.15300
O 	O 	0.49335 0.63321 0.92123 -0.21200
C 	C 	0.41967 0.61254 0.89527 -0.01600
C 	C 	0.41929 0.70611 0.94928 -0.14800
C 	C 	0.31215 0.81639 0.06480 -0.14700
C 	C 	0.18977 0.78261 0.01398 -0.17800
H 	H 	1.00051 0.78851 1.06540 0.07600
H 	H 	1.02511 0.81409 0.03568 0.07800
H 	H 	0.14855 0.85170 0.08914 0.05200
H 	H 	0.12265 0.82109 0.11465 0.05100
H 	H 	0.27628 0.84471 0.12943 -0.00600
H 	H 	0.23955 0.77290 0.12553 0.06000
H 	H 	0.34449 0.76993 0.10717 0.04900
H 	H 	0.26063 0.70228 0.05974 0.00500
H 	H 	0.11514 0.73678 0.07407 0.06400
H 	H 	0.13456 0.70711 0.02040 0.05600
H 	H 	0.27936 0.70454 0.99358 0.05400
H 	H 	0.36812 0.72804 0.02968 0.06400
H 	H 	0.29766 0.76438 0.95678 0.05500
H 	H 	0.35083 0.81228 0.99353 0.05700
H 	H 	0.49008 0.80560 0.02327 0.04300
H 	H 	0.60927 0.67772 -0.02193 0.05800
H 	H 	0.36360 0.61645 0.91435 0.01700
H 	H 	0.43241 0.57670 0.87587 0.04100
H 	H 	0.40523 0.62617 0.87388 0.01700
H 	H 	0.36174 0.69208 0.93067 0.05000
H 	H 	0.38099 0.81376 0.07213 0.04000
H 	H 	0.30272 0.84844 0.06483 0.04300
H 	H 	0.17416 0.75703 0.98219 0.07000
H 	H 	0.17820 0.81472 0.01438 0.07000
C 	C 	0.13631 0.90279 0.52088 -0.18600
C 	C 	0.05692 0.93430 0.53487 0.12400
C 	C 	-0.02638 0.90914 0.51279 -0.15600
C 	C 	0.89654 0.94169 0.52573 0.06100
C 	C 	0.88682 0.96317 0.57300 -0.12900
C 	C 	-0.03086 0.98834 0.59527 0.05600
C 	C 	0.04617 0.95636 0.58251 -0.14900
C 	C 	-0.01594 0.02456 0.58359 -0.14600
C 	C 	-0.00705 1.00453 0.53591 0.11200
C 	C 	0.00966 0.04044 0.52246 -0.16600
C 	C 	-0.04231 0.08309 0.54399 0.08900
C 	C 	0.89616 0.09547 0.52213 -0.09400
C 	C 	0.85273 0.13635 0.54285 0.03800
C 	C 	0.86574 0.16241 0.58580 -0.11500
C 	C 	-0.07157 0.15182 0.60741 0.16400
O 	O 	-0.05967 0.18188 0.64989 -0.21600
C 	C 	-0.00100 0.17023 0.67374 -0.01500
C 	C 	-0.02222 0.11329 0.58567 -0.15000
C 	C 	0.91086 0.97806 0.51356 -0.14300
C 	C 	0.06972 0.97126 0.52286 -0.16400
H 	H 	0.19568 0.92246 0.53383 0.07000
H 	H 	0.13973 0.88658 0.48653 0.06600
H 	H 	-0.02046 0.89277 0.47856 0.05300
H 	H 	0.96227 0.88286 0.52124 0.05800
H 	H 	0.83726 0.92329 0.50978 0.00300
H 	H 	0.87441 0.93745 0.58199 0.04500
H 	H 	0.83101 0.98630 0.58257 0.04700
H 	H 	-0.03780 1.00368 0.62932 0.00100
H 	H 	0.03389 0.93133 0.59228 0.05700
H 	H 	0.10536 0.97433 0.59924 0.05800
H 	H 	0.04323 0.04240 0.60021 0.05300
H 	H 	-0.07123 0.04779 0.59450 0.05900
H 	H 	0.07840 0.04963 0.52828 0.05600
H 	H 	-0.00073 0.02541 0.48829 0.05500
H 	H 	0.88553 0.07466 0.48908 0.05900
H 	H 	0.83066 0.19315 0.60274 0.07700
H 	H 	-0.02067 0.13917 0.67294 0.02600
H 	H 	-0.00119 0.19706 0.70634 0.02900
H 	H 	0.06465 0.16699 0.66232 0.02700
H 	H 	0.03172 0.10635 0.60090 0.06300
H 	H 	0.85409 0.00049 0.52171 0.05700
H 	H 	0.91670 0.96227 0.47932 0.05400
H 	H 	0.12984 0.98928 0.53812 0.05600
H 	H 	0.07784 0.95604 0.48878 0.05500
C 	C 	0.10878 0.13256 0.03998 -0.20100
C 	C 	0.08634 0.08289 1.01207 0.14000
C 	C 	-0.00429 0.07783 0.99131 -0.15200
C 	C 	-0.02778 0.02851 0.96633 0.05600
C 	C 	0.03795 0.00455 0.93218 -0.13200
C 	C 	0.12832 1.00872 0.95225 0.06400
C 	C 	0.15331 0.05753 0.97808 -0.15900
C 	C 	0.12901 0.98758 0.98043 -0.14500
C 	C 	0.06364 1.01116 0.01549 0.10900
C 	C 	0.06698 0.99158 0.04599 -0.16700
C 	C 	0.04833 0.94260 0.02636 0.08500
C 	C 	0.97425 0.92768 0.03614 -0.09800
C 	C 	0.95740 0.88228 0.01720 0.02900
C 	C 	1.01165 0.85245 -0.01376 -0.11800
C 	C 	0.08844 0.86614 -0.02153 0.15500
O 	O 	0.14229 0.83324 -0.05061 -0.22300
C 	C 	0.22256 0.84588 -0.05857 -0.03100
C 	C 	0.10855 0.91125 0.00063 -0.15100
C 	C 	-0.02713 1.00781 0.99547 -0.14300
C 	C 	0.08638 0.06100 0.04047 -0.17200
H 	H 	0.16696 0.13460 0.05923 0.07000
H 	H 	0.05649 0.14960 1.06187 0.07300
H 	H 	-0.05296 0.09569 1.01513 0.05400
H 	H 	-0.00650 0.09233 0.97013 0.05900
H 	H 	0.90732 0.02526 0.95167 0.00400
H 	H 	0.03674 0.01903 0.91096 0.04900
H 	H 	0.02088 0.96910 0.91317 0.04600
H 	H 	0.17531 0.99116 0.92749 0.00100
H 	H 	0.15786 0.07055 0.95615 0.08100
H 	H 	0.21820 0.06009 0.99264 0.06000
H 	H 	0.19468 0.98890 0.99384 0.05100
H 	H 	0.11163 0.95256 0.96013 0.05900
H 	H 	0.13149 0.99716 0.06149 0.05300
H 	H 	0.02131 1.01051 0.07108 0.05400
H 	H 	0.93103 0.95110 0.05885 0.05200
H 	H 	0.99798 0.81745 -0.02991 0.06900
H 	H 	0.21300 0.86951 0.92921 0.03000
H 	H 	0.25517 0.81601 0.91751 0.03000
H 	H 	0.26443 0.86017 -0.03013 0.02200
H 	H 	0.17019 0.92232 -0.00254 0.05900
H 	H 	0.95291 0.97275 0.97764 0.06100
H 	H 	0.92532 0.02544 0.01999 0.05100
H 	H 	0.15050 0.06471 0.05611 0.05500
H 	H 	0.03961 0.07857 0.06542 0.05600
C 	C 	0.53859 0.38174 0.49019 -0.18800
C 	C 	0.56554 0.41813 0.47968 0.13100
C 	C 	0.66420 0.41957 0.47611 -0.15400
C 	C 	0.68637 0.45636 0.46597 0.06300
C 	C 	0.64331 0.44661 0.42410 -0.13600
C 	C 	0.54543 0.44568 0.42701 0.06500
C 	C 	0.52194 0.40931 0.43763 -0.15600
C 	C 	0.51365 0.49077 0.46103 -0.15100
C 	C 	0.55535 0.50109 0.50386 0.12200
C 	C 	0.52472 0.54681 0.53916 -0.17400
C 	C 	0.43076 0.55724 0.53576 0.09900
C 	C 	0.40708 0.58829 0.52282 -0.10500
C 	C 	0.32073 0.59727 0.51831 0.03900
C 	C 	0.25725 0.57543 0.52688 -0.11500
C 	C 	0.27897 0.54452 0.54002 0.16700
O 	O 	0.21109 0.52420 0.54827 -0.21800
C 	C 	0.23105 0.48952 0.55789 -0.01400
C 	C 	0.36647 0.53590 0.54481 -0.15200
C 	C 	0.65424 0.50134 0.50060 -0.15000
C 	C 	0.53371 0.46359 0.51366 -0.17100
H 	H 	0.47792 0.39084 0.50732 0.06100
H 	H 	0.52415 0.35077 0.46096 0.06700
H 	H 	0.69824 0.42627 0.50564 0.06800
H 	H 	0.68776 0.38708 0.45149 0.06400
H 	H 	0.75696 0.45725 0.46389 0.00100
H 	H 	0.66666 0.41426 0.39928 0.05400
H 	H 	0.66071 0.47223 0.41575 0.04200
H 	H 	0.51408 0.43877 0.39690 0.00200
H 	H 	0.54264 0.37663 0.41232 0.06500
H 	H 	0.45110 0.40830 0.43911 0.05400
H 	H 	0.44275 0.48967 0.46151 0.06100
H 	H 	0.52945 0.51707 0.45329 0.05300
H 	H 	0.53817 0.54908 0.57000 0.06100
H 	H 	0.56343 0.57323 0.53906 0.05700
H 	H 	0.45575 0.60504 0.51569 0.04900
H 	H 	0.19028 0.58215 0.52303 0.07100
H 	H 	0.26517 0.46204 0.53201 0.02300
H 	H 	0.17043 0.47648 0.56208 0.02500
H 	H 	0.26966 0.50216 0.58730 0.02500
H 	H 	0.38490 0.51429 0.55731 0.06200
H 	H 	0.67291 0.52787 0.49370 0.04800
H 	H 	0.68631 0.50830 0.53063 0.05600
H 	H 	0.46359 0.46150 0.51492 0.06100
H 	H 	0.56238 0.47050 0.54433 0.06600
C 	C 	0.36900 0.40844 1.02211 -0.17300
C 	C 	0.45813 0.42924 1.02562 0.12600
C 	C 	0.51376 0.43428 0.06370 -0.15300
C 	C 	0.59967 0.45617 0.06577 0.05500
C 	C 	0.64885 0.42789 1.02588 -0.12700
C 	C 	0.59444 0.42335 0.98829 0.05800
C 	C 	0.50906 0.40080 0.98589 -0.14900
C 	C 	0.57645 0.46963 0.99262 -0.14700
C 	C 	0.52747 0.49967 1.03322 0.12000
C 	C 	0.50664 0.54834 1.04154 -0.16900
C 	C 	0.53957 0.56037 1.01044 0.11100
C 	C 	0.60553 0.59157 0.02119 -0.12500
C 	C 	0.63824 0.59965 0.99066 0.05700
C 	C 	0.60329 0.57687 0.94994 -0.12100
C 	C 	0.53749 0.54676 0.93911 0.17800
O 	O 	0.51200 0.52362 0.89689 -0.21600
C 	C 	0.45305 0.48832 0.88385 -0.01500
C 	C 	0.50303 0.54009 0.97014 -0.16000
C 	C 	0.58254 0.50243 0.07053 -0.15200
C 	C 	0.44239 0.47613 1.03033 -0.15900
H 	H 	0.32442 0.43412 1.04369 0.07200
H 	H 	0.34022 0.39689 -0.00949 0.06100
H 	H 	0.47902 0.45454 0.09282 0.06200
H 	H 	0.52846 0.40155 0.06144 0.05700
H 	H 	0.63891 0.45920 0.09289 0.00100
H 	H 	0.66411 0.39475 1.02267 0.04500
H 	H 	0.71037 0.44395 1.02745 0.04800
H 	H 	0.62958 0.40269 0.95940 0.00600
H 	H 	0.52217 0.36736 0.98243 0.05600
H 	H 	0.47144 0.39624 0.95783 0.05400
H 	H 	0.53808 0.46439 0.96463 0.05900
H 	H 	0.63783 0.48504 0.99258 0.06100
H 	H 	0.43631 0.55455 1.04278 0.06100
H 	H 	0.53061 0.57288 0.07298 0.05500
H 	H 	0.63265 0.60822 0.05247 0.05700
H 	H 	0.62804 0.58192 0.92554 0.07400
H 	H 	0.47837 0.46316 0.89226 0.02800
H 	H 	0.44480 0.47223 0.84962 0.03200
H 	H 	0.38966 0.50122 0.89754 0.02400
H 	H 	0.45013 0.51784 0.96312 0.06600
H 	H 	0.64454 0.51858 0.07278 0.05200
H 	H 	0.54929 0.52298 0.10001 0.05200
H 	H 	0.40236 0.47356 1.00353 0.05700
H 	H 	0.40566 0.49661 0.05876 0.05300
C 	C 	0.95042 0.30883 0.43366 -0.18700
C 	C 	0.95918 0.29338 0.38667 0.13100
C 	C 	1.02203 0.25328 0.36733 -0.15400
C 	C 	1.03356 0.23871 0.32119 0.06900
C 	C 	0.94593 0.22502 0.29823 -0.13900
C 	C 	0.88305 0.26481 0.31642 0.07000
C 	C 	0.87118 0.28146 0.36288 -0.15900
C 	C 	0.91929 0.30236 0.31102 -0.15300
C 	C 	1.00757 0.31724 0.33456 0.12200
C 	C 	1.04318 0.35719 0.33150 -0.17200
C 	C 	1.05957 0.34762 0.28781 0.08800
C 	C 	1.14368 0.34195 0.27380 -0.10500
C 	C 	1.15759 0.33278 0.23320 -0.00100
C 	C 	1.08758 0.32562 0.20577 -0.16600
C 	C 	1.00386 0.33168 0.21910 0.16000
O 	O 	0.93743 0.32335 0.18925 -0.22800
C 	C 	0.85280 0.31829 0.19932 -0.01200
C 	C 	0.99056 0.34531 0.26106 -0.16500
C 	C 	1.07016 0.27708 0.31649 -0.15300
C 	C 	0.99648 0.33148 0.38123 -0.16900
H 	H 	0.92304 0.34286 0.44891 0.06600
H 	H 	1.01483 0.31126 0.44854 0.06300
H 	H 	1.08558 0.26208 0.38385 0.05300
H 	H 	0.99808 0.22492 0.37013 0.06400
H 	H 	0.07860 0.21004 0.30783 -0.00400
H 	H 	0.92117 0.19701 0.30125 0.06500
H 	H 	0.95312 0.21312 0.26456 0.05300
H 	H 	0.82001 0.25477 0.29954 0.01400
H 	H 	0.83832 0.25604 0.36655 0.08100
H 	H 	0.82786 0.31090 0.37560 0.06200
H 	H 	0.87290 0.33050 0.32219 0.05500
H 	H 	0.92587 0.28907 0.27720 0.06200
H 	H 	0.99756 0.38557 0.34539 0.05200
H 	H 	1.10346 0.36828 0.35062 0.05600
H 	H 	0.19779 0.34548 0.29449 0.04100
H 	H 	1.09785 0.31476 0.17351 0.05700
H 	H 	0.85159 0.29241 0.20897 0.02700
H 	H 	0.81058 0.30762 0.17126 0.02600
H 	H 	0.82765 0.35020 0.22387 0.01700
H 	H 	0.92674 0.35306 0.27292 0.06000
H 	H 	1.08011 0.26574 0.28315 0.06200
H 	H 	1.13374 0.28662 0.33283 0.05400
H 	H 	0.95327 0.36091 0.39524 0.05600
H 	H 	1.05938 0.34154 0.39822 0.05700
C 	C 	0.97466 0.63252 0.29208 -0.17700
C 	C 	0.94984 0.65832 0.26859 0.12200
C 	C 	0.85387 0.65012 0.25449 -0.14700
C 	C 	0.82771 0.67470 0.23000 0.05900
C 	C 	0.84175 0.72470 0.25766 -0.13400
C 	C 	0.93664 0.73301 0.27163 0.06200
C 	C 	0.96155 0.70904 0.29650 -0.15100
C 	C 	0.99314 0.71562 0.23342 -0.14700
C 	C 	0.97933 0.66483 0.20406 0.11500
C 	C 	1.03540 0.64395 0.16438 -0.16200
C 	C 	1.06427 0.67743 0.15292 0.09800
C 	C 	1.00734 0.69204 0.13174 -0.10500
C 	C 	1.02010 0.73277 0.13370 0.03300
C 	C 	1.09068 0.75863 0.15650 -0.12600
C 	C 	1.15249 0.74210 0.17467 0.16500
O 	O 	1.22601 0.76533 0.19704 -0.22000
C 	C 	1.22214 0.81242 0.21728 -0.01900
C 	C 	1.13966 0.70083 0.17158 -0.15100
C 	C 	0.88259 0.65747 0.19128 -0.14700
C 	C 	1.00372 0.64097 0.22936 -0.15500
H 	H 	-0.07236 0.64076 0.31664 -0.00600
H 	H 	0.96948 0.59640 0.27065 0.02100
H 	H 	0.84212 0.61414 0.23474 0.04400
H 	H 	0.81283 0.66185 0.28187 0.04300
H 	H 	0.75895 0.66870 0.22022 0.00300
H 	H 	0.80088 0.73753 0.28516 0.04800
H 	H 	0.82304 0.74289 0.24051 0.05700
H 	H 	0.94665 0.76906 0.29148 0.00600
H 	H 	0.92106 0.72137 0.32410 0.05200
H 	H 	1.02831 0.71790 0.30824 0.06700
H 	H 	1.06138 0.72221 0.24410 0.06200
H 	H 	0.97626 0.73495 0.21719 0.06500
H 	H 	0.09346 0.62713 0.16893 0.05300
H 	H 	0.00020 0.61727 0.13749 0.05300
H 	H 	0.94914 0.67388 0.11725 0.05700
H 	H 	1.09746 0.79100 0.15931 0.05800
H 	H 	1.22072 0.82492 0.19466 0.02700
H 	H 	1.28102 0.82518 0.23698 0.03400
H 	H 	1.16583 0.82491 0.23743 0.02800
H 	H 	1.18413 0.68931 0.18778 0.07100
H 	H 	0.86331 0.67502 0.17360 0.05900
H 	H 	0.86936 0.62176 0.17085 0.05200
H 	H 	0.07284 0.64607 0.23809 0.06200
H 	H 	-0.00564 0.60475 0.20966 0.04700
C 	C 	0.90664 0.42449 0.76005 -0.17900
C 	C 	-0.02140 0.39508 0.76556 0.10400
C 	C 	0.00868 0.35814 0.72288 -0.14000
C 	C 	0.08217 0.33101 0.72906 0.05900
C 	C 	0.15853 0.36133 0.75185 -0.13200
C 	C 	0.13066 0.39751 0.79469 0.05900
C 	C 	0.05648 0.42501 0.78926 -0.14600
C 	C 	0.10109 0.37614 0.82032 -0.15000
C 	C 	0.02274 0.34571 0.79843 0.10900
C 	C 	0.99040 0.32168 0.82267 -0.16600
C 	C 	1.01821 0.33939 0.86824 0.09800
C 	C 	0.05618 0.31087 0.88210 -0.10800
C 	C 	0.07992 0.32648 0.92431 0.03900
C 	C 	0.06708 0.37127 0.95217 -0.12300
C 	C 	1.02302 0.39929 0.93999 0.17300
O 	O 	1.00591 0.44279 0.97117 -0.20700
C 	C 	0.94293 0.46823 0.96246 -0.02100
C 	C 	0.99776 0.38286 0.89791 -0.15300
C 	C 	0.05088 0.30998 0.75472 -0.14800
C 	C 	0.94884 0.37347 0.79161 -0.15300
H 	H 	0.87608 0.44533 0.79023 0.06600
H 	H 	-0.06383 0.44786 0.75163 0.00200
H 	H 	-0.04491 0.33556 0.70530 0.05400
H 	H 	0.03054 0.37289 0.70394 0.01400
H 	H 	0.10273 0.30453 0.69836 0.00900
H 	H 	0.18095 0.37680 0.73361 0.05300
H 	H 	0.21298 0.34171 0.75521 0.05400
H 	H 	0.18581 0.41950 0.81114 0.00300
H 	H 	0.07964 0.44158 0.77210 0.03600
H 	H 	1.03723 0.45162 0.82026 0.05200
H 	H 	1.08493 0.40322 0.85136 0.06200
H 	H 	0.15495 0.35669 0.82451 0.05800
H 	H 	0.91935 0.32116 0.82112 0.06100
H 	H 	1.00952 0.28618 0.80576 0.06000
H 	H 	0.06578 0.27628 0.86009 0.05600
H 	H 	0.08803 0.38422 0.98416 0.08500
H 	H 	0.96681 0.47755 0.93985 0.03500
H 	H 	0.93007 0.49913 0.99154 0.03900
H 	H 	0.88177 0.44992 0.95111 0.03200
H 	H 	0.96351 0.40369 0.88772 0.06600
H 	H 	0.10334 0.29000 0.75830 0.05500
H 	H 	-0.00263 0.28712 0.73761 0.06000
H 	H 	0.92653 0.39952 0.82211 0.05900
H 	H 	0.89348 0.35170 0.77517 0.06600
C 	C 	0.49472 0.17597 0.06481 -0.17900
C 	C 	0.51677 0.15803 0.09622 0.11800
C 	C 	0.48711 0.10925 0.07692 -0.14600
C 	C 	0.51746 0.08871 0.10434 0.05800
C 	C 	0.61590 0.09011 0.10910 -0.13200
C 	C 	0.64519 0.13844 0.12963 0.06000
C 	C 	0.61603 0.15893 0.10228 -0.14700
C 	C 	0.60609 0.16486 0.17254 -0.14700
C 	C 	0.50628 0.16389 0.16870 0.11400
C 	C 	0.46236 0.18871 0.21193 -0.16900
C 	C 	0.52183 0.20923 0.25002 0.09000
C 	C 	0.56412 0.18334 0.26567 -0.11500
C 	C 	0.61994 0.20333 0.30053 -0.00700
C 	C 	0.62835 0.24945 0.32123 -0.11500
C 	C 	0.58648 0.27568 0.30657 0.15900
O 	O 	0.60174 0.32152 0.32854 -0.22200
C 	C 	0.56003 0.34887 0.31387 -0.01500
C 	C 	0.53379 0.25509 0.27043 -0.15300
C 	C 	0.47820 0.11483 0.14723 -0.14500
C 	C 	0.47717 0.18439 0.14001 -0.16100
H 	H 	0.55153 0.19256 0.06162 0.05700
H 	H 	0.48360 0.14782 0.03314 0.05800
H 	H 	0.41607 0.10783 0.07331 0.05200
H 	H 	0.51330 0.08903 0.04556 0.04700
H 	H 	0.49635 0.05378 0.08971 0.00000
H 	H 	0.64462 0.07089 0.07816 0.04600
H 	H 	0.63841 0.07459 0.12819 0.04800
H 	H 	0.71625 0.13951 0.13319 0.00400
H 	H 	0.64673 0.14047 0.07172 0.04800
H 	H 	0.63896 0.19361 0.11693 0.05100
H 	H 	0.62895 0.19949 0.18736 0.05900
H 	H 	0.63034 0.15000 0.19186 0.05900
H 	H 	0.41800 0.21460 0.21215 0.06300
H 	H 	0.41910 0.16646 0.21638 0.04900
H 	H 	0.55631 0.14784 0.24974 0.02300
H 	H 	0.67075 0.26518 0.34833 0.06400
H 	H 	0.58045 0.33953 0.28217 0.02500
H 	H 	0.57879 0.38358 0.33443 0.02500
H 	H 	0.48939 0.34688 0.31463 0.02600
H 	H 	0.50212 0.27418 0.25757 0.06700
H 	H 	0.49865 0.09946 0.16673 0.04500
H 	H 	0.40718 0.11279 0.14376 0.04800
H 	H 	0.49708 0.21950 0.15486 0.06700
H 	H 	0.40615 0.18390 0.13649 0.06600
C 	C 	0.58215 0.76217 0.90958 -0.19100
C 	C 	0.55603 0.73030 0.86337 0.13200
C 	C 	0.62295 0.73116 0.83388 -0.15600
C 	C 	0.59299 0.70204 0.78841 0.06300
C 	C 	0.58154 0.65407 0.77964 -0.13500
C 	C 	0.51332 0.65287 0.80819 0.06300
C 	C 	0.54211 0.68146 0.85361 -0.15400
C 	C 	0.42736 0.67081 0.80068 -0.14900
C 	C 	0.43712 0.71921 0.80893 0.11700
C 	C 	0.34832 0.73880 0.80383 -0.17300
C 	C 	0.32965 0.73529 0.76191 0.09600
C 	C 	0.31155 0.77315 0.75804 -0.11000
C 	C 	0.29492 0.76925 0.71888 -0.00300
C 	C 	0.30215 0.72776 0.68332 -0.12300
C 	C 	0.31763 0.68970 0.68676 0.16100
O 	O 	0.32078 0.64884 0.65002 -0.21200
C 	C 	0.34286 0.61061 0.65398 -0.02000
C 	C 	0.32578 0.69380 0.72657 -0.15900
C 	C 	0.50689 0.71993 0.78018 -0.14800
C 	C 	0.46948 0.74773 0.85449 -0.16700
H 	H 	0.59415 0.79575 0.91396 0.06500
H 	H 	0.52737 0.76536 0.92883 0.07300
H 	H 	0.63176 0.76554 0.83973 0.05400
H 	H 	0.68628 0.71926 0.83934 0.07400
H 	H 	0.64183 0.70265 0.76763 0.00300
H 	H 	0.64350 0.64054 0.78489 0.05500
H 	H 	0.56176 0.63271 0.74662 0.05000
H 	H 	0.50536 0.61812 0.80153 0.00500
H 	H 	0.59977 0.66475 0.85779 0.06700
H 	H 	0.49327 0.68067 0.87406 0.06500
H 	H 	0.37902 0.66942 0.82135 0.04800
H 	H 	0.40598 0.64816 0.76855 0.05400
H 	H 	0.29555 0.72246 0.81044 0.05700
H 	H 	0.34388 0.77427 0.82751 0.05400
H 	H 	0.30477 0.80509 0.78538 0.03400
H 	H 	0.28797 0.72427 0.65283 0.06400
H 	H 	0.40665 0.61439 0.66973 0.02700
H 	H 	0.34585 0.58167 0.62304 0.04100
H 	H 	0.29311 0.60401 0.67074 0.02900
H 	H 	0.32948 0.66500 0.73035 0.06700
H 	H 	0.48839 0.69891 0.74701 0.05700
H 	H 	0.51498 0.75410 0.78536 0.04700
H 	H 	0.42032 0.74801 0.87565 0.05500
H 	H 	0.47700 0.78257 0.86126 0.05300
C 	C 	0.39427 0.78661 0.41651 -0.19100
C 	C 	0.36852 0.79489 0.37966 0.12900
C 	C 	0.36553 0.75110 0.33792 -0.15400
C 	C 	0.34456 0.76099 0.30189 0.06400
C 	C 	0.25636 0.78439 0.30884 -0.13600
C 	C 	0.25952 0.82838 0.34985 0.06200
C 	C 	0.28085 0.81913 0.38627 -0.15300
C 	C 	0.32853 0.85814 0.34747 -0.14800
C 	C 	0.41827 0.83535 0.34087 0.11600
C 	C 	0.49139 0.86594 0.34154 -0.16600
C 	C 	0.49693 0.87358 0.30431 0.08100
C 	C 	0.56959 0.85895 0.27932 -0.08200
C 	C 	0.57927 0.86904 0.24697 -0.01900
C 	C 	0.51278 0.89194 0.23850 -0.09000
C 	C 	0.44002 0.90654 0.26255 0.13900
O 	O 	0.37523 0.92764 0.25047 -0.23400
C 	C 	0.29638 0.93879 0.27160 -0.01200
C 	C 	0.43511 0.89957 0.29707 -0.14000
C 	C 	0.41453 0.79078 0.29995 -0.14900
C 	C 	0.43760 0.82502 0.37716 -0.16600
H 	H 	0.45706 0.76903 0.41054 0.06700
H 	H 	0.40352 0.81936 0.44420 0.07900
H 	H 	0.42792 0.73321 0.33281 0.05400
H 	H 	0.31567 0.72896 0.33813 0.06800
H 	H 	0.34212 0.72942 0.27223 0.00800
H 	H 	0.20598 0.76291 0.30991 0.05400
H 	H 	0.23884 0.79063 0.28262 0.05900
H 	H 	0.19604 0.84523 0.35458 0.00300
H 	H 	0.22956 0.79870 0.38833 0.06300
H 	H 	0.28238 0.85084 0.41592 0.05800
H 	H 	0.32921 0.89059 0.37631 0.05200
H 	H 	0.30982 0.86397 0.32113 0.05500
H 	H 	0.48616 0.89866 0.36977 0.05800
H 	H 	0.55377 0.85202 0.34566 0.05600
H 	H 	0.61967 0.84078 0.28582 0.04900
H 	H 	0.51724 0.89932 0.21332 -0.08100
H 	H 	0.26992 0.90992 0.27266 0.02200
H 	H 	0.24903 0.94782 0.25366 0.02100
H 	H 	0.30489 0.96740 0.30329 0.02000
H 	H 	0.38466 0.91517 0.31877 0.06000
H 	H 	0.39989 0.79660 0.27319 0.06200
H 	H 	0.47770 0.77356 0.29474 0.05400
H 	H 	0.44132 0.85661 0.40690 0.05800
H 	H 	0.50142 0.80852 0.37326 0.05500
C 	C 	0.33462 0.14457 0.78001 -0.18000
C 	C 	0.32072 0.17354 0.75797 0.12300
C 	C 	0.26579 0.14719 0.71756 -0.15000
C 	C 	0.25067 0.17450 0.69505 0.06200
C 	C 	0.20317 0.21741 0.72413 -0.13700
C 	C 	0.25884 0.24472 0.76369 0.06700
C 	C 	0.27722 0.21893 0.78695 -0.15400
C 	C 	0.34260 0.25560 0.75164 -0.15300
C 	C 	0.39326 0.21288 0.72264 0.11600
C 	C 	0.48141 0.22488 0.71150 -0.16900
C 	C 	0.47510 0.25002 0.68677 0.09600
C 	C 	0.51679 0.23505 0.64885 -0.10100
C 	C 	0.50323 0.25761 0.62572 0.03100
C 	C 	0.43612 0.28875 0.63681 -0.12700
C 	C 	0.40656 0.30832 0.67700 0.17200
O 	O 	0.35705 0.34703 0.69259 -0.22600
C 	C 	0.40542 0.38492 0.70088 -0.01500
C 	C 	0.43385 0.29142 0.70300 -0.15400
C 	C 	0.33695 0.18536 0.68310 -0.14800
C 	C 	0.40796 0.18448 0.74538 -0.16200
H 	H 	0.35228 0.11011 0.75721 0.02700
H 	H 	0.39036 0.15785 0.80212 0.02200
H 	H 	0.29850 0.11556 0.69655 0.05000
H 	H 	0.20303 0.13846 0.72451 0.06100
H 	H 	0.21109 0.15520 0.66641 0.00300
H 	H 	0.14156 0.20963 0.73291 0.05000
H 	H 	0.18847 0.23675 0.70769 0.05100
H 	H 	0.22542 0.27608 0.78447 0.00100
H 	H 	0.21497 0.21699 0.79858 0.07400
H 	H 	0.31902 0.23844 0.81483 0.05800
H 	H 	0.38181 0.27744 0.77975 0.05400
H 	H 	0.32071 0.27407 0.73557 0.06200
H 	H 	0.51920 0.24507 0.74062 0.06000
H 	H 	0.51827 0.19371 0.69365 0.05800
H 	H 	0.56588 0.20966 0.64005 0.05400
H 	H 	0.42135 0.30509 0.61850 0.05900
H 	H 	0.45633 0.39077 0.72489 0.03200
H 	H 	0.36224 0.41415 0.71257 0.02700
H 	H 	0.43485 0.38081 0.67231 0.02200
H 	H 	0.42283 0.31095 0.73572 0.07000
H 	H 	0.32406 0.20391 0.66574 0.05900
H 	H 	0.37085 0.15422 0.66200 0.05300
H 	H 	0.44977 0.20283 0.77352 0.05200
H 	H 	0.44238 0.15323 0.72490 0.05100
C 	C 	-0.00539 0.67789 0.58408 -0.18700
C 	C 	-0.03443 0.68592 0.62703 0.12900
C 	C 	-0.08260 0.73061 0.65192 -0.16200
C 	C 	0.88567 0.73440 0.69267 0.06600
C 	C 	0.82390 0.69640 0.68272 -0.13500
C 	C 	0.87124 0.65187 0.65853 0.06200
C 	C 	0.90298 0.64784 0.61806 -0.14900
C 	C 	0.94850 0.64898 0.68448 -0.14700
C 	C 	0.01210 0.68738 0.69548 0.11700
C 	C 	0.09283 0.68597 0.72189 -0.17200
C 	C 	0.08379 0.65924 0.74423 0.08700
C 	C 	0.02827 0.67329 0.77725 -0.09800
C 	C 	1.01556 0.64685 0.79574 -0.00900
C 	C 	1.06224 0.60748 0.78304 -0.13300
C 	C 	1.11939 0.59306 0.75026 0.15200
O 	O 	1.16551 0.55275 0.73442 -0.22900
C 	C 	1.14535 0.52244 0.74874 -0.00200
C 	C 	1.12951 0.61929 0.73129 -0.14600
C 	C 	0.96265 0.73199 0.71928 -0.14500
C 	C 	0.04256 0.68385 0.65412 -0.17100
H 	H 	0.02897 0.64553 0.56904 0.06800
H 	H 	-0.06288 0.67420 0.56399 0.05900
H 	H 	-0.04053 0.75906 0.66013 0.06600
H 	H 	0.86218 0.73313 0.63322 0.05700
H 	H 	0.85165 0.76653 0.71027 -0.00200
H 	H 	0.76779 0.69820 0.66398 0.04500
H 	H 	0.79910 0.69941 0.71182 0.04900
H 	H 	0.82659 0.62444 0.65129 0.00400
H 	H 	0.84684 0.64863 0.59878 0.05100
H 	H 	0.93500 0.61512 0.60016 0.05500
H 	H 	0.98165 0.61652 0.66706 0.05900
H 	H 	0.92341 0.65049 0.71285 0.06300
H 	H 	0.14834 0.67228 0.70143 0.07000
H 	H 	0.11258 0.71998 0.74509 0.06600
H 	H 	-0.00787 0.70386 0.78755 0.04900
H 	H 	1.05028 0.58754 0.79756 -0.00300
H 	H 	1.07668 0.51323 0.74197 -0.00900
H 	H 	1.16120 0.53685 0.78241 0.00000
H 	H 	1.18450 0.49193 0.73215 0.01500
H 	H 	1.17168 0.60775 0.70554 0.07000
H 	H 	0.93901 0.73559 0.74875 0.05600
H 	H 	0.00569 0.76030 0.72752 0.05900
H 	H 	0.07841 0.65224 0.63646 0.06800
H 	H 	0.08747 0.71117 0.66116 0.07900
