data_crystal

_cell_length_a 38.12800
_cell_length_b 39.74190
_cell_length_c 33.84550
_cell_angle_alpha 91.22700
_cell_angle_beta  81.67150
_cell_angle_gamma 91.32850

_symmetry_space_group_name_	'P 1'
_symmetry_space_group_name_H-M	'P 1'

loop_
_symmetry_equiv_pos_as_xyz
  x,y,z

loop_
_atom_site_label
_atom_site_type_symbol
_atom_site_fract_x
_atom_site_fract_y
_atom_site_fract_z
_atom_site_charge
Eu	Eu	0.11749 0.61378 0.11306 1.71400
O 	O 	0.08939 0.68619 0.12339 -0.32300
C 	C 	0.05690 0.56192 0.13450 0.27600
O 	O 	0.17875 0.66642 0.12492 -0.27300
O 	O 	0.14945 0.65286 0.07330 -0.44200
O 	O 	0.16547 0.55409 0.09098 -0.34300
O 	O 	0.02727 0.56697 0.15214 -0.25000
O 	O 	0.08606 0.57381 0.15141 -0.42800
O 	O 	0.10795 0.65024 0.16665 -0.41700
C 	C 	0.09302 0.68035 0.15780 0.33300
O 	O 	0.16826 0.59754 0.13472 -0.42300
C 	C 	0.18209 0.56888 0.11449 0.33000
C 	C 	0.17947 0.66434 0.08884 0.31700
Eu	Eu	0.38054 0.89043 0.87872 1.83800
O 	O 	0.45462 0.89823 0.84047 -0.34300
C 	C 	0.42003 0.92541 0.94049 0.32100
O 	O 	0.32426 0.93148 0.85189 -0.33200
O 	O 	0.35428 0.88744 0.82248 -0.45400
O 	O 	0.31446 0.89872 0.93366 -0.33700
O 	O 	0.41840 0.94631 0.91502 -0.34400
O 	O 	0.40712 0.89300 0.93475 -0.44800
O 	O 	0.41992 0.85152 0.85078 -0.43900
C 	C 	0.45039 0.86839 0.83281 0.32300
O 	O 	0.34157 0.85133 0.90877 -0.43700
C 	C 	0.31584 0.86814 0.93495 0.32700
C 	C 	0.33201 0.91447 0.82164 0.31200
Eu	Eu	0.14109 0.11745 0.62424 1.80100
O 	O 	0.11927 0.18983 0.61894 -0.32100
C 	C 	0.08460 0.07570 0.59043 0.30100
O 	O 	0.21131 0.11901 0.57265 -0.36000
O 	O 	0.18674 0.15565 0.62016 -0.44700
O 	O 	0.15318 0.04441 0.64518 -0.31700
O 	O 	0.08425 0.10123 0.57120 -0.33300
O 	O 	0.09634 0.07825 0.62730 -0.43600
O 	O 	0.10769 0.15227 0.66820 -0.43300
C 	C 	0.11005 0.18507 0.65439 0.31900
O 	O 	0.16163 0.09404 0.67704 -0.44200
C 	C 	0.16146 0.05903 0.67464 0.33200
C 	C 	0.21403 0.14565 0.59070 0.33000
Eu	Eu	0.87161 0.89487 0.38181 1.73400
O 	O 	0.90694 0.87714 0.29878 -0.33100
C 	C 	0.93328 0.88755 0.42937 0.26900
O 	O 	0.81192 0.94418 0.38302 -0.32600
O 	O 	0.84483 0.91686 0.33222 -0.43500
O 	O 	0.83531 0.90201 0.46719 -0.32000
O 	O 	0.95959 0.87091 0.41884 -0.24700
O 	O 	0.89984 0.87253 0.42978 -0.41900
O 	O 	0.87855 0.84482 0.34783 -0.42500
C 	C 	0.89659 0.84913 0.30953 0.32100
O 	O 	0.81811 0.87565 0.41321 -0.41600
C 	C 	0.81350 0.88380 0.45375 0.32400
C 	C 	0.82199 0.94229 0.34723 0.30700
Eu	Eu	0.86620 0.39378 0.87515 1.79400
O 	O 	0.91382 0.38348 0.79384 -0.32700
C 	C 	0.91197 0.42351 0.93396 0.32000
O 	O 	0.84867 0.45350 0.83509 -0.36300
O 	O 	0.83327 0.39929 0.82460 -0.44500
O 	O 	0.83246 0.38311 0.96537 -0.31600
O 	O 	0.91397 0.44493 0.90835 -0.34500
O 	O 	0.90000 0.39114 0.92541 -0.44100
O 	O 	0.89340 0.34792 0.84386 -0.44100
C 	C 	0.90994 0.35453 0.80527 0.33400
O 	O 	0.82517 0.35681 0.90703 -0.43800
C 	C 	0.82586 0.35697 0.94810 0.32800
C 	C 	0.83546 0.43303 0.81395 0.32600
Eu	Eu	0.63043 0.12282 0.11847 1.74300
O 	O 	0.57794 0.17874 0.13503 -0.32100
C 	C 	0.57689 0.10144 0.06257 0.32400
O 	O 	0.71717 0.17354 0.14280 -0.24800
O 	O 	0.65916 0.15966 0.15597 -0.43100
O 	O 	0.66131 0.05170 0.09883 -0.32500
O 	O 	0.57138 0.13126 0.06909 -0.33200
O 	O 	0.60213 0.08555 0.08110 -0.44000
O 	O 	0.57966 0.12777 0.16275 -0.42600
C 	C 	0.56438 0.15890 0.16009 0.33400
O 	O 	0.64470 0.08026 0.15704 -0.43200
C 	C 	0.65639 0.05149 0.13526 0.33500
C 	C 	0.68781 0.17586 0.13332 0.28100
Eu	Eu	0.62922 0.62397 0.61545 1.81500
O 	O 	0.57047 0.67186 0.60986 -0.34100
C 	C 	0.57729 0.57265 0.58506 0.32300
O 	O 	0.69473 0.62868 0.55417 -0.34800
O 	O 	0.67875 0.65761 0.61207 -0.45400
O 	O 	0.64978 0.55228 0.61997 -0.32000
O 	O 	0.60244 0.57308 0.55839 -0.33100
O 	O 	0.57890 0.59149 0.61972 -0.44800
O 	O 	0.59874 0.65899 0.66137 -0.43600
C 	C 	0.56961 0.67082 0.64594 0.31700
O 	O 	0.64660 0.59432 0.66591 -0.43400
C 	C 	0.65031 0.56057 0.65472 0.31500
C 	C 	0.70177 0.65127 0.57693 0.32600
Eu	Eu	0.36252 0.40195 0.37606 1.79700
O 	O 	0.40278 0.40814 0.29491 -0.31000
C 	C 	0.43642 0.42303 0.39321 0.32600
O 	O 	0.33934 0.44792 0.31429 -0.32800
O 	O 	0.31644 0.39889 0.34007 -0.45100
O 	O 	0.33680 0.39931 0.46556 -0.32500
O 	O 	0.43321 0.43685 0.36214 -0.34100
O 	O 	0.40830 0.40391 0.41260 -0.44100
O 	O 	0.39199 0.36299 0.33422 -0.42700
C 	C 	0.40856 0.37867 0.29995 0.31600
O 	O 	0.33424 0.36118 0.41564 -0.43200
C 	C 	0.32236 0.37428 0.45350 0.30900
C 	C 	0.31591 0.42644 0.31562 0.31900
C 	C 	0.91934 0.43282 0.97533 -0.22300
C 	C 	0.95798 0.44278 0.97633 0.06900
C 	C 	0.96977 0.47363 0.95934 -0.06300
C 	C 	0.00373 0.48624 0.96148 -0.04100
C 	C 	0.02683 0.46950 0.98261 0.02800
C 	C 	0.06289 0.48593 0.98512 -0.14100
C 	C 	0.06269 0.50583 0.02367 0.09200
C 	C 	0.04087 0.53378 0.03149 -0.11500
C 	C 	0.03988 0.55208 0.06724 0.04000
C 	C 	0.06111 0.54324 0.09587 -0.18300
C 	C 	0.08379 0.51540 0.08794 0.13900
N 	N 	0.10479 0.50404 0.11681 -0.20500
C 	C 	0.08457 0.49717 0.05174 -0.14500
C 	C 	0.01563 0.43836 1.00075 0.00100
C 	C 	0.03762 0.42081 0.02310 -0.03900
C 	C 	0.02702 0.38973 0.03950 -0.02600
C 	C 	0.99471 0.37518 0.03347 -0.03200
C 	C 	0.97221 0.39199 0.01195 -0.02800
C 	C 	0.98149 0.42424 0.99630 -0.02200
H 	H 	0.90958 0.41233 0.99582 0.08800
H 	H 	0.90259 0.45452 0.98647 0.07900
H 	H 	0.95218 0.48856 0.94475 0.05600
H 	H 	0.01165 0.51001 0.94745 0.03500
H 	H 	0.07019 0.50351 0.96000 0.05300
H 	H 	0.08395 0.46681 0.98088 0.05500
H 	H 	0.02428 0.54132 1.00997 0.05200
H 	H 	0.02240 0.57331 0.07260 0.00300
H 	H 	0.12198 0.48400 0.10996 0.08900
H 	H 	0.10277 0.51425 0.14564 0.10200
H 	H 	0.10176 0.47577 0.04589 0.06300
H 	H 	0.06313 0.43073 0.02832 0.03700
H 	H 	0.04421 0.37663 0.05656 0.03300
H 	H 	0.98704 0.35062 0.04547 0.03500
H 	H 	0.94807 0.37882 1.00734 0.03800
C 	C 	0.55710 0.08204 0.03411 -0.22600
C 	C 	0.53808 0.05157 0.05383 0.07300
C 	C 	0.50413 0.05619 0.07501 -0.06600
C 	C 	0.48277 0.02885 0.08873 -0.04100
C 	C 	0.49444 0.99581 0.08139 0.02800
C 	C 	0.46733 0.96738 0.08993 -0.14100
C 	C 	0.45490 0.95554 0.05151 0.09400
C 	C 	0.43695 0.97769 0.03017 -0.10600
C 	C 	0.42654 0.96768 0.99385 0.04800
C 	C 	0.43355 0.93517 0.97801 -0.14100
C 	C 	0.45181 0.91261 0.99932 0.14100
N 	N 	0.46194 0.87993 0.98349 -0.20000
C 	C 	0.46179 0.92291 0.03616 -0.13800
C 	C 	0.52984 0.99046 0.06297 0.00200
C 	C 	0.54378 0.95776 0.05755 -0.04000
C 	C 	0.57869 0.95290 0.03999 -0.02600
C 	C 	0.60051 0.98035 0.02775 -0.03200
C 	C 	0.58751 1.01291 0.03255 -0.02500
C 	C 	0.55203 1.01860 0.04960 -0.01800
H 	H 	0.57553 0.07503 0.00695 0.07600
H 	H 	0.53746 0.09860 0.02330 0.08400
H 	H 	0.49348 0.08124 0.07958 0.04800
H 	H 	0.45605 0.03355 0.10321 0.03600
H 	H 	0.44384 0.97601 0.11074 0.05600
H 	H 	0.47827 0.94667 0.10561 0.05600
H 	H 	0.43107 1.00290 0.04161 0.05600
H 	H 	0.41232 0.98531 0.97840 0.02400
H 	H 	0.47236 0.86259 1.00120 0.08300
H 	H 	0.46251 0.87369 0.95332 0.09800
H 	H 	0.47574 0.90564 0.05237 0.06100
H 	H 	0.52833 0.93564 0.06733 0.03600
H 	H 	0.58900 0.92769 0.03634 0.03200
H 	H 	0.62777 0.97642 0.01472 0.03600
H 	H 	0.60590 0.03336 0.02367 0.04300
C 	C 	0.92213 0.32568 0.77779 -0.22800
C 	C 	0.96167 0.32085 0.77528 0.06900
C 	C 	0.97315 0.29969 0.80318 -0.06500
C 	C 	0.00867 0.29180 0.80115 -0.04200
C 	C 	0.03417 0.30447 0.77085 0.02800
C 	C 	0.07215 0.29347 0.76982 -0.14100
C 	C 	0.08152 0.26611 0.73868 0.09500
C 	C 	0.06482 0.23436 0.74309 -0.10700
C 	C 	0.07456 0.20840 0.71553 0.04900
C 	C 	0.10102 0.21360 0.68265 -0.13800
C 	C 	0.11836 0.24559 0.67827 0.14100
N 	N 	0.14730 0.25211 0.64710 -0.20100
C 	C 	0.10832 0.27142 0.70631 -0.13900
C 	C 	0.02354 0.32675 0.74266 0.00100
C 	C 	0.04830 0.34092 0.71210 -0.04000
C 	C 	0.03762 0.36310 0.68502 -0.02600
C 	C 	1.00226 0.37185 0.68791 -0.03100
C 	C 	0.97717 0.35829 0.71768 -0.02900
C 	C 	0.98707 0.33534 0.74521 -0.01900
H 	H 	0.91376 0.32867 0.74804 0.08200
H 	H 	0.90788 0.30244 0.78954 0.08500
H 	H 	0.95424 0.28864 0.82655 0.04800
H 	H 	0.01619 0.27496 0.82309 0.03600
H 	H 	0.07614 0.28340 0.79922 0.05700
H 	H 	0.09063 0.31552 0.76534 0.05600
H 	H 	0.04445 0.22953 0.76821 0.05600
H 	H 	0.06115 0.18414 0.71983 0.02700
H 	H 	0.15750 0.27655 0.64252 0.08300
H 	H 	0.16111 0.23288 0.63069 0.10600
H 	H 	0.12220 0.29551 0.70332 0.06000
H 	H 	0.07610 0.33530 0.70870 0.03700
H 	H 	0.05696 0.37374 0.66180 0.03200
H 	H 	0.99421 0.38938 0.66704 0.03500
H 	H 	0.95021 0.36642 0.71890 0.04500
C 	C 	0.73530 0.67195 0.56752 -0.22600
C 	C 	0.72692 0.70846 0.56169 0.06600
C 	C 	0.73070 0.73146 0.59283 -0.06000
C 	C 	0.72231 0.76510 0.59024 -0.04300
C 	C 	0.70997 0.77723 0.55632 0.02900
C 	C 	0.70101 0.81425 0.55601 -0.14200
C 	C 	0.72952 0.83397 0.53014 0.09600
C 	C 	0.76390 0.83640 0.54017 -0.10700
C 	C 	0.79062 0.85385 0.51583 0.05200
C 	C 	0.78365 0.86890 0.48072 -0.14000
C 	C 	0.74865 0.86788 0.47132 0.14500
N 	N 	0.73947 0.88504 0.43753 -0.20200
C 	C 	0.72192 0.85065 0.49636 -0.14000
C 	C 	0.70654 0.75469 0.52384 0.00000
C 	C 	0.69452 0.76568 0.48882 -0.04000
C 	C 	0.69181 0.74356 0.45689 -0.02600
C 	C 	0.70039 0.70996 0.45932 -0.03200
C 	C 	0.71191 0.69819 0.49368 -0.03500
C 	C 	0.71519 0.72010 0.52646 -0.02200
H 	H 	0.75253 0.66185 0.54082 0.08600
H 	H 	0.75063 0.66952 0.59281 0.08200
H 	H 	0.73998 0.72324 0.61974 0.04700
H 	H 	0.72563 0.78193 0.61509 0.03700
H 	H 	0.69827 0.82540 0.58670 0.05700
H 	H 	0.67461 0.81693 0.54629 0.05700
H 	H 	0.77013 0.82441 0.56664 0.05700
H 	H 	0.81715 0.85471 0.52379 0.02700
H 	H 	0.71363 0.88346 0.43068 0.08500
H 	H 	0.75730 0.90116 0.42049 0.10600
H 	H 	0.69511 0.85016 0.48928 0.06200
H 	H 	0.68703 0.79131 0.48550 0.03800
H 	H 	0.68290 0.75258 0.43013 0.03400
H 	H 	0.69801 0.69287 0.43447 0.03500
H 	H 	0.71836 0.67189 0.49389 0.04300
C 	C 	0.21768 0.55663 0.12111 -0.22600
C 	C 	0.21385 0.52548 0.14654 0.06800
C 	C 	0.22257 0.49445 0.12772 -0.06300
C 	C 	0.22004 0.46489 0.14927 -0.04400
C 	C 	0.20848 0.46510 0.19052 0.02800
C 	C 	0.20746 0.43188 0.21211 -0.14100
C 	C 	0.23547 0.43081 0.23937 0.09400
C 	C 	0.27140 0.43587 0.22424 -0.10700
C 	C 	0.29718 0.43523 0.24958 0.05100
C 	C 	0.28769 0.42891 0.29042 -0.14100
C 	C 	0.25156 0.42321 0.30581 0.13900
N 	N 	0.24024 0.41792 0.34753 -0.19900
C 	C 	0.22596 0.42384 0.28003 -0.13900
C 	C 	0.19872 0.49610 0.21035 0.00100
C 	C 	0.18568 0.49759 0.25159 -0.03900
C 	C 	0.17712 0.52825 0.27094 -0.02600
C 	C 	0.18145 0.55801 0.24980 -0.02800
C 	C 	0.19375 0.55730 0.20900 -0.03100
C 	C 	0.20205 0.52657 0.18837 -0.01900
H 	H 	0.23259 0.57670 0.13534 0.08700
H 	H 	0.23361 0.55154 0.09145 0.08000
H 	H 	0.23149 0.49299 0.09588 0.04500
H 	H 	0.22748 0.44155 0.13349 0.03600
H 	H 	0.21208 0.41047 0.19046 0.05700
H 	H 	0.18043 0.42749 0.22868 0.05700
H 	H 	0.27942 0.44035 0.19276 0.05800
H 	H 	0.32482 0.43861 0.23704 0.02800
H 	H 	0.21403 0.41070 0.35779 0.08000
H 	H 	0.25687 0.42309 0.36889 0.07600
H 	H 	0.19839 0.41908 0.29183 0.06100
H 	H 	0.18160 0.47525 0.26935 0.03900
H 	H 	0.16726 0.52896 0.30257 0.03400
H 	H 	0.17520 0.58181 0.26506 0.03800
H 	H 	0.19671 0.58114 0.19415 0.05300
C 	C 	0.82396 0.44416 0.77577 -0.22600
C 	C 	0.78393 0.44420 0.77784 0.06900
C 	C 	0.76567 0.46853 0.80292 -0.06700
C 	C 	0.72995 0.47418 0.80220 -0.04200
C 	C 	0.71114 0.45638 0.77558 0.02700
C 	C 	0.67250 0.46494 0.77578 -0.14100
C 	C 	0.66789 0.48876 0.74282 0.09400
C 	C 	0.68206 0.52160 0.74331 -0.10700
C 	C 	0.67593 0.54455 0.71457 0.04900
C 	C 	0.65548 0.53528 0.68464 -0.13800
C 	C 	0.64062 0.50223 0.68419 0.14100
N 	N 	0.61726 0.49196 0.65632 -0.20000
C 	C 	0.64731 0.47928 0.71308 -0.13900
C 	C 	0.72859 0.43088 0.75049 0.00100
C 	C 	0.71076 0.41196 0.72339 -0.04000
C 	C 	0.72763 0.38604 0.70021 -0.02600
C 	C 	0.76238 0.37825 0.70362 -0.03200
C 	C 	0.78092 0.39684 0.72951 -0.02900
C 	C 	0.76492 0.42393 0.75262 -0.02000
H 	H 	0.83778 0.42911 0.75070 0.08400
H 	H 	0.83392 0.47035 0.76969 0.08600
H 	H 	0.77957 0.48410 0.82255 0.04800
H 	H 	0.71712 0.49350 0.82187 0.03500
H 	H 	0.66169 0.47726 0.80467 0.05600
H 	H 	0.65610 0.44160 0.77450 0.05600
H 	H 	0.69758 0.52965 0.76629 0.05600
H 	H 	0.68746 0.56967 0.71555 0.02600
H 	H 	0.60889 0.46683 0.65448 0.08400
H 	H 	0.60540 0.50923 0.63991 0.10100
H 	H 	0.63548 0.45425 0.71301 0.06100
H 	H 	0.68372 0.41677 0.71969 0.03700
H 	H 	0.71352 0.37164 0.67979 0.03300
H 	H 	0.77510 0.35764 0.68610 0.03500
H 	H 	0.80738 0.38884 0.73171 0.03900
C 	C 	0.29059 0.84967 0.96562 -0.22500
C 	C 	0.29750 0.81233 0.96536 0.07500
C 	C 	0.32108 0.80114 -0.00988 -0.06200
C 	C 	0.32558 0.76702 -0.00477 -0.04000
C 	C 	0.30626 0.74278 0.97619 0.02500
C 	C 	0.30870 0.70633 -0.01242 -0.13800
C 	C 	0.27500 0.69502 0.01332 0.09300
C 	C 	0.26364 0.71183 0.04958 -0.10600
C 	C 	0.23237 0.70184 0.07340 0.05000
C 	C 	0.21203 0.67433 0.06202 -0.13800
C 	C 	0.22397 0.65648 0.02598 0.13500
N 	N 	0.20641 0.62629 0.01439 -0.19900
C 	C 	0.25506 0.66737 0.00181 -0.13700
C 	C 	0.28363 0.75334 0.94916 0.00300
C 	C 	0.26472 0.72985 0.92798 -0.04100
C 	C 	0.24294 0.74051 0.90123 -0.02500
C 	C 	0.23986 0.77464 0.89458 -0.03400
C 	C 	0.25816 0.79845 0.91507 -0.02700
C 	C 	0.27972 0.78839 0.94315 -0.02000
H 	H 	0.26280 0.85461 0.96177 0.08400
H 	H 	0.29348 0.86063 0.99552 0.08100
H 	H 	0.33543 0.81910 0.00663 0.04600
H 	H 	0.34327 0.75954 0.01565 0.03600
H 	H 	0.33101 0.70299 0.00489 0.05600
H 	H 	0.31487 0.69031 0.96027 0.05500
H 	H 	0.27889 0.73298 0.05928 0.05700
H 	H 	0.22396 0.71577 0.10089 0.02800
H 	H 	0.21506 0.61439 -0.01303 0.07700
H 	H 	0.18750 0.61341 0.03415 0.06600
H 	H 	0.26412 0.65372 -0.02569 0.05900
H 	H 	0.26668 0.70309 0.93146 0.03700
H 	H 	0.22864 0.72214 0.88527 0.03100
H 	H 	0.22337 0.78272 0.87324 0.03400
H 	H 	0.25551 0.82460 0.90816 0.03700
C 	C 	0.17156 0.03952 0.70846 -0.22900
C 	C 	0.20254 0.01713 0.69402 0.07200
C 	C 	0.23624 0.03251 0.68793 -0.06600
C 	C 	0.26648 0.01362 0.67788 -0.04100
C 	C 	0.26431 0.97845 0.67475 0.02800
C 	C 	0.29871 0.95940 0.66958 -0.14100
C 	C 	0.30581 0.94682 0.70936 0.09400
C 	C 	0.31063 0.96993 0.74007 -0.10800
C 	C 	0.31744 0.95882 0.77689 0.04700
C 	C 	0.32034 0.92434 0.78378 -0.14200
C 	C 	0.31467 0.90071 0.75323 0.14000
N 	N 	0.31440 0.86513 0.75952 -0.20000
C 	C 	0.30783 0.91227 0.71618 -0.14000
C 	C 	0.23040 0.96220 0.67889 0.00200
C 	C 	0.22672 0.92693 0.67425 -0.04000
C 	C 	0.19334 0.91146 0.67680 -0.02600
C 	C 	0.16300 0.93067 0.68369 -0.03300
C 	C 	0.16571 0.96546 0.68894 -0.02800
C 	C 	0.19919 0.98181 0.68756 -0.01900
H 	H 	0.14814 0.02559 0.72361 0.08200
H 	H 	0.17922 0.05742 0.73160 0.08700
H 	H 	0.23917 0.05951 0.69191 0.04600
H 	H 	0.29203 0.02658 0.67436 0.03500
H 	H 	0.32132 0.97611 0.65741 0.05600
H 	H 	0.29838 0.93882 0.64696 0.05600
H 	H 	0.30947 0.99672 0.73545 0.05600
H 	H 	0.32167 0.97741 0.79969 0.02300
H 	H 	0.31283 0.84818 0.73578 0.08200
H 	H 	0.31228 0.85517 0.78805 0.09800
H 	H 	0.30383 0.89421 0.69276 0.06100
H 	H 	0.24932 0.91084 0.66820 0.03600
H 	H 	0.19103 0.88444 0.67277 0.03200
H 	H 	0.13718 0.91854 0.68480 0.03300
H 	H 	0.14128 0.97912 0.69304 0.03900
C 	C 	0.08163 0.70545 0.19082 -0.22600
C 	C 	0.04282 0.71372 0.19249 0.06700
C 	C 	0.01805 0.69482 0.21802 -0.06600
C 	C 	0.98200 0.70092 0.22145 -0.04100
C 	C 	0.96922 0.72654 0.19993 0.02900
C 	C 	0.92954 0.73224 0.20637 -0.14200
C 	C 	0.92040 0.76274 0.23281 0.09700
C 	C 	0.92529 0.76252 0.27306 -0.10700
C 	C 	0.91677 0.79059 0.29778 0.05200
C 	C 	0.90378 0.81967 0.28260 -0.14100
C 	C 	0.89809 0.81988 0.24219 0.14400
N 	N 	0.88312 0.84820 0.22562 -0.20200
C 	C 	0.90606 0.79123 0.21791 -0.14000
C 	C 	0.99365 0.74613 0.17361 0.00000
C 	C 	0.98214 0.77195 0.15079 -0.04000
C 	C 	1.00628 0.79125 0.12543 -0.02600
C 	C 	0.04226 0.78470 0.12131 -0.03100
C 	C 	0.05445 0.75891 0.14271 -0.02700
C 	C 	0.03070 0.73954 0.16962 -0.01700
H 	H 	0.09878 0.72842 0.18768 0.08600
H 	H 	0.08609 0.69463 0.21971 0.08900
H 	H 	0.02672 0.67500 0.23563 0.04800
H 	H 	0.96390 0.68567 0.24165 0.03800
H 	H 	0.91496 0.71016 0.22089 0.05800
H 	H 	0.91981 0.73414 0.17714 0.05700
H 	H 	0.93568 0.74053 0.28534 0.05800
H 	H 	0.92102 0.78983 0.32872 0.02700
H 	H 	0.88139 0.84874 0.19512 0.08500
H 	H 	0.87200 0.86812 0.24331 0.10300
H 	H 	0.90082 0.79122 0.18732 0.06200
H 	H 	0.95454 0.77751 0.15186 0.03700
H 	H 	0.99693 0.81116 0.10853 0.03300
H 	H 	0.06082 0.79953 0.10115 0.03600
H 	H 	0.08256 0.75439 0.13749 0.04600
C 	C 	0.24665 0.16751 0.58151 -0.22800
C 	C 	0.23683 0.20268 0.57130 0.06900
C 	C 	0.23913 0.22837 0.59984 -0.06200
C 	C 	0.22964 0.26105 0.59310 -0.04400
C 	C 	0.21701 0.26937 0.55778 0.02800
C 	C 	0.20713 0.30569 0.55305 -0.14100
C 	C 	0.23646 0.32452 0.52734 0.09400
C 	C 	0.26850 0.33224 0.54169 -0.10700
C 	C 	0.29588 0.34931 0.51780 0.05000
C 	C 	0.29219 0.35809 0.47872 -0.13900
C 	C 	0.25969 0.35109 0.46435 0.13600
N 	N 	0.25393 0.36086 0.42530 -0.20100
C 	C 	0.23200 0.33494 0.48912 -0.13800
C 	C 	0.21416 0.24379 0.52825 0.00200
C 	C 	0.20086 0.25052 0.49243 -0.03900
C 	C 	0.19866 0.22535 0.46355 -0.02600
C 	C 	0.20959 0.19299 0.46958 -0.03200
C 	C 	0.22237 0.18538 0.50483 -0.03400
C 	C 	0.22459 0.21030 0.53486 -0.02100
H 	H 	0.26564 0.15653 0.55687 0.08500
H 	H 	0.26036 0.16806 0.60836 0.08100
H 	H 	0.24798 0.22306 0.62801 0.04500
H 	H 	0.23200 0.28008 0.61600 0.03400
H 	H 	0.20210 0.31879 0.58264 0.05400
H 	H 	0.18155 0.30678 0.54114 0.05700
H 	H 	0.27229 0.32500 0.57140 0.05500
H 	H 	0.32041 0.35495 0.52944 0.02500
H 	H 	0.23035 0.35416 0.41452 0.08300
H 	H 	0.27230 0.37552 0.40698 0.08000
H 	H 	0.20691 0.33047 0.47832 0.06000
H 	H 	0.19173 0.27500 0.48624 0.03700
H 	H 	0.18834 0.23101 0.43633 0.03300
H 	H 	0.20801 0.17363 0.44686 0.03300
H 	H 	0.23043 0.15983 0.50807 0.04000
C 	C 	0.53102 0.16724 0.18779 -0.22500
C 	C 	0.52075 0.20371 0.18530 0.07400
C 	C 	0.49143 0.21061 0.16646 -0.06300
C 	C 	0.48147 0.24352 0.16169 -0.04100
C 	C 	0.50021 0.27085 0.17598 0.02800
C 	C 	0.48858 0.30602 0.16805 -0.14200
C 	C 	0.47044 0.32359 0.20517 0.09500
C 	C 	0.44093 0.30861 0.22832 -0.10700
C 	C 	0.42194 0.32639 0.26013 0.05000
C 	C 	0.43184 0.35954 0.26925 -0.13800
C 	C 	0.46249 0.37433 0.24715 0.14300
N 	N 	0.47537 0.40713 0.25721 -0.20100
C 	C 	0.48120 0.35632 0.21506 -0.14100
C 	C 	0.52972 0.26464 0.19584 0.00200
C 	C 	0.54946 0.29128 0.21079 -0.04300
C 	C 	0.57832 0.28487 0.23028 -0.02500
C 	C 	0.58826 0.25194 0.23510 -0.03500
C 	C 	0.56942 0.22512 0.22047 -0.02700
C 	C 	0.54003 0.23083 0.20060 -0.01900
H 	H 	0.53428 0.16153 0.21899 0.08300
H 	H 	0.50962 0.14992 0.18008 0.08300
H 	H 	0.47628 0.19030 0.15474 0.04600
H 	H 	0.45887 0.24764 0.14646 0.03700
H 	H 	0.46956 0.30508 0.14605 0.05800
H 	H 	0.51183 0.32088 0.15365 0.05700
H 	H 	0.43200 0.28346 0.22111 0.05800
H 	H 	0.39858 0.31465 0.27672 0.02700
H 	H 	0.49526 0.41940 0.23797 0.08600
H 	H 	0.46754 0.41845 0.28509 0.10600
H 	H 	0.50408 0.36807 0.19755 0.06200
H 	H 	0.54295 0.31727 0.20766 0.03900
H 	H 	0.59305 0.30558 0.24175 0.03300
H 	H 	0.61077 0.24713 0.25016 0.03800
H 	H 	0.57834 0.20003 0.22481 0.03800
C 	C 	0.47747 0.85100 0.80317 -0.22400
C 	C 	0.46633 0.81518 0.79415 0.07400
C 	C 	0.44526 0.81021 0.76383 -0.06200
C 	C 	0.43684 0.77803 0.75094 -0.04200
C 	C 	0.44967 0.74955 0.76741 0.02800
C 	C 	0.44318 0.71559 0.74821 -0.14100
C 	C 	0.47639 0.70381 0.72234 0.09400
C 	C 	0.49057 0.72201 0.68847 -0.10800
C 	C 	0.52081 0.71092 0.66387 0.04900
C 	C 	0.53770 0.68157 0.67275 -0.14100
C 	C 	0.52333 0.66283 0.70664 0.14100
N 	N 	0.53807 0.63148 0.71570 -0.20000
C 	C 	0.49282 0.67417 0.73104 -0.14000
C 	C 	0.46940 0.75374 0.79982 0.00200
C 	C 	0.48130 0.72582 0.81896 -0.04000
C 	C 	0.50034 0.73029 0.85090 -0.02500
C 	C 	0.50747 0.76250 0.86488 -0.03300
C 	C 	0.49591 0.79056 0.84680 -0.02700
C 	C 	0.47735 0.78683 0.81369 -0.01900
H 	H 	0.50380 0.85234 0.81340 0.08300
H 	H 	0.48103 0.86547 0.77504 0.07900
H 	H 	0.43590 0.83158 0.74929 0.04400
H 	H 	0.42127 0.77545 0.72667 0.03500
H 	H 	0.42204 0.71716 0.72891 0.05600
H 	H 	0.43288 0.69711 0.77141 0.05600
H 	H 	0.47809 0.74478 0.68097 0.05500
H 	H 	0.53126 0.72550 0.63793 0.02300
H 	H 	0.53003 0.62036 0.74337 0.08400
H 	H 	0.55467 0.61785 0.69416 0.09400
H 	H 	0.48143 0.65941 0.75641 0.06100
H 	H 	0.47585 0.70029 0.80992 0.03700
H 	H 	0.50925 0.70860 0.86521 0.03200
H 	H 	0.52190 0.76577 0.89003 0.03400
H 	H 	0.50122 0.81493 0.85963 0.03600
C 	C 	0.47063 0.42624 0.41012 -0.22500
C 	C 	0.46501 0.44282 0.45119 0.06800
C 	C 	0.46734 0.42280 0.48425 -0.06000
C 	C 	0.46339 0.43656 0.52269 -0.04300
C 	C 	0.45677 0.47088 0.52967 0.02800
C 	C 	0.45575 0.48458 0.57204 -0.14200
C 	C 	0.48711 0.50780 0.57564 0.09500
C 	C 	0.52175 0.49647 0.56444 -0.10800
C 	C 	0.55075 0.51807 0.56702 0.05000
C 	C 	0.54577 0.55125 0.58136 -0.14300
C 	C 	0.51091 0.56276 0.59332 0.14100
N 	N 	0.50415 0.59670 0.60710 -0.20100
C 	C 	0.48196 0.54079 0.59055 -0.14000
C 	C 	0.45261 0.49152 0.49696 0.00100
C 	C 	0.44360 0.52575 0.50267 -0.04100
C 	C 	0.44052 0.54597 0.47028 -0.02800
C 	C 	0.44643 0.53267 0.43163 -0.03300
C 	C 	0.45491 0.49889 0.42508 -0.03600
C 	C 	0.45753 0.47759 0.45737 -0.02100
H 	H 	0.49085 0.44075 0.38998 0.08500
H 	H 	0.48131 0.40055 0.41131 0.08200
H 	H 	0.47254 0.39616 0.48031 0.04700
H 	H 	0.46609 0.42022 0.54723 0.03700
H 	H 	0.45648 0.46381 0.59336 0.05700
H 	H 	0.43018 0.49730 0.58150 0.05600
H 	H 	0.52635 0.47089 0.55362 0.05700
H 	H 	0.57723 0.50861 0.55856 0.02600
H 	H 	0.47870 0.60367 0.61991 0.08400
H 	H 	0.52348 0.61575 0.60238 0.09500
H 	H 	0.45531 0.54973 0.59945 0.06100
H 	H 	0.43837 0.53719 0.53206 0.03800
H 	H 	0.43353 0.57213 0.47521 0.03200
H 	H 	0.44424 0.54857 0.40657 0.03400
H 	H 	0.45929 0.48988 0.39449 0.04400
C 	C 	0.93651 0.92414 0.44148 -0.20800
C 	C 	0.96892 0.93067 0.46215 0.06300
C 	C 	0.99743 0.94887 0.44150 -0.05800
C 	C 	0.02889 0.95373 0.45721 -0.04300
C 	C 	0.03294 0.94135 0.49472 0.03200
C 	C 	0.06864 0.94714 0.50892 -0.14200
C 	C 	0.06985 0.98012 0.53168 0.09400
C 	C 	0.06998 0.01050 0.51153 -0.10800
C 	C 	0.07282 0.04112 0.53165 0.04300
C 	C 	0.07597 0.04243 0.57261 -0.13900
C 	C 	0.07451 0.01167 0.59358 0.14100
N 	N 	0.07492 0.01069 0.63583 -0.19700
C 	C 	0.07214 0.98092 0.57266 -0.13900
C 	C 	0.00413 0.92357 0.51703 -0.00100
C 	C 	0.00646 0.91088 0.55523 -0.03800
C 	C 	0.97851 0.89231 0.57596 -0.02600
C 	C 	0.94740 0.88665 0.55968 -0.02800
C 	C 	0.94392 0.89955 0.52252 -0.02900
C 	C 	0.97199 0.91797 0.50044 -0.01100
H 	H 	0.91227 0.93219 0.46150 0.05600
H 	H 	0.93789 0.93939 0.41407 0.01900
H 	H 	0.99573 0.95882 0.41231 0.03700
H 	H 	0.05052 0.96712 0.43952 0.03600
H 	H 	0.09005 0.94770 0.48283 0.05700
H 	H 	0.07560 0.92569 0.52650 0.05800
H 	H 	0.06894 0.01063 0.47978 0.05400
H 	H 	0.07389 0.06390 0.51449 0.02600
H 	H 	0.08002 0.98821 0.64920 0.08500
H 	H 	0.06529 0.03039 0.65487 0.10500
H 	H 	0.07194 0.95754 0.58854 0.06200
H 	H 	0.02961 0.91500 0.56974 0.03600
H 	H 	-0.01899 0.88227 0.60487 0.03300
H 	H 	0.92578 0.87226 0.57600 0.03700
H 	H 	0.91906 0.89479 0.51140 0.04800
C 	C 	0.66260 0.02030 0.15720 -0.22800
C 	C 	0.69276 0.02647 0.18118 0.06800
C 	C 	0.68417 0.03618 0.22139 -0.05900
C 	C 	0.71047 0.04337 0.24491 -0.04200
C 	C 	0.74641 0.04021 0.22952 0.03000
C 	C 	0.77352 0.04955 0.25675 -0.14200
C 	C 	0.78589 1.01903 0.27617 0.09400
C 	C 	0.76222 1.00134 0.30423 -0.10800
C 	C 	0.77419 0.97576 0.32614 0.05000
C 	C 	0.81009 0.96715 0.32046 -0.13900
C 	C 	0.83406 0.98418 0.29125 0.13400
N 	N 	0.87134 0.97769 0.28540 -0.19900
C 	C 	0.82162 1.00986 0.26931 -0.13700
C 	C 	0.75598 0.02989 0.18903 0.00100
C 	C 	0.79178 0.02598 0.17219 -0.04000
C 	C 	0.80093 0.01732 0.13200 -0.02700
C 	C 	0.77475 0.01236 0.10773 -0.03200
C 	C 	0.73914 0.01549 0.12360 -0.03300
C 	C 	0.72899 0.02379 0.16440 -0.02100
H 	H 	0.66764 -0.00176 0.13666 0.08600
H 	H 	0.63770 0.01388 0.17725 0.08400
H 	H 	0.65672 0.03888 0.23459 0.05000
H 	H 	0.70259 0.05155 0.27559 0.03800
H 	H 	0.76182 0.06708 0.28090 0.05900
H 	H 	0.79596 0.06421 0.24036 0.05900
H 	H 	0.73461 1.00813 0.31019 0.05600
H 	H 	0.75542 0.96301 0.34824 0.02400
H 	H 	0.88834 0.98976 0.26285 0.08000
H 	H 	0.88305 0.96286 0.30469 0.06900
H 	H 	0.84027 1.02366 0.24808 0.06000
H 	H 	0.81315 0.02951 0.18960 0.03700
H 	H 	0.82854 0.01470 0.11956 0.03200
H 	H 	0.78209 0.00604 0.07641 0.03400
H 	H 	0.71994 0.01161 0.10334 0.04200
C 	C 	0.82111 0.32452 0.97035 -0.22400
C 	C 	0.78280 0.31236 0.97685 0.06900
C 	C 	0.77259 0.28688 0.95136 -0.06200
C 	C 	0.73891 0.27206 0.95807 -0.04300
C 	C 	0.71414 0.28192 0.99076 0.02800
C 	C 	0.67938 0.26198 0.99865 -0.14200
C 	C 	0.67955 0.23853 0.03321 0.09300
C 	C 	0.70446 0.21289 0.03053 -0.11600
C 	C 	0.70620 0.19219 0.06295 0.04200
C 	C 	0.68289 0.19649 0.09874 -0.18900
C 	C 	0.65733 0.22202 0.10156 0.13900
N 	N 	0.63483 0.22944 0.13832 -0.20500
C 	C 	0.65542 0.24230 0.06844 -0.14600
C 	C 	0.72319 0.30873 1.01615 0.00100
C 	C 	0.69877 0.32062 0.04854 -0.03800
C 	C 	0.70817 0.34641 0.07374 -0.02600
C 	C 	0.74189 0.36108 0.06715 -0.03100
C 	C 	0.76648 0.35017 0.03521 -0.02900
C 	C 	0.75778 0.32400 1.00919 -0.02000
H 	H 	0.83153 0.32690 0.99931 0.08400
H 	H 	0.83815 0.30556 0.95281 0.08000
H 	H 	0.79122 0.27771 0.92645 0.04700
H 	H 	0.73258 0.25180 0.93821 0.03500
H 	H 	0.67511 0.24640 0.97202 0.05400
H 	H 	0.65671 0.27937 1.00362 0.05600
H 	H 	0.72299 0.20925 1.00342 0.05300
H 	H 	0.72610 0.17296 0.06025 0.00300
H 	H 	0.61498 0.24725 0.13937 0.09400
H 	H 	0.63875 0.21890 0.16524 0.10100
H 	H 	0.63591 0.26189 0.07079 0.06400
H 	H 	0.67213 0.31047 0.05473 0.03700
H 	H 	0.68911 0.35514 0.09847 0.03300
H 	H 	0.74903 0.38108 0.08688 0.03600
H 	H 	0.79216 0.36265 1.03127 0.04600
