data_crystal

_cell_length_a 38.94550
_cell_length_b 31.63970
_cell_length_c 34.19470
_cell_angle_alpha 87.91030
_cell_angle_beta  77.26120
_cell_angle_gamma 93.74060

_symmetry_space_group_name_	'P 1'
_symmetry_space_group_name_H-M	'P 1'

loop_
_symmetry_equiv_pos_as_xyz
  x,y,z

loop_
_atom_site_label
_atom_site_type_symbol
_atom_site_fract_x
_atom_site_fract_y
_atom_site_fract_z
_atom_site_charge
Mn	Mn	0.10756 0.37939 0.04953 1.21100
Mn	Mn	0.08952 0.43639 0.96991 1.27900
Mn	Mn	0.89779 0.58359 0.94363 1.21900
Mn	Mn	0.92246 0.53491 0.02396 1.27400
Mn	Mn	0.00877 0.49150 -0.00456 1.26700
C 	C 	0.09496 0.31066 0.99117 0.12400
N 	N 	0.09779 0.35136 1.00046 -0.26000
N 	N 	0.09017 0.37310 0.97037 -0.19800
N 	N 	0.08245 0.34737 0.94344 -0.05300
N 	N 	0.08520 0.30772 0.95572 -0.08900
N 	N 	0.05462 0.42038 0.90306 -0.10700
N 	N 	0.05112 0.43441 0.93952 -0.20700
N 	N 	0.02130 0.45274 0.94981 -0.19700
N 	N 	0.00438 0.45095 0.92044 -0.10300
C 	C 	0.02504 0.43049 0.89147 0.12200
C 	C 	0.10395 0.56248 0.95194 0.12400
N 	N 	0.08805 0.49932 0.97135 -0.19800
N 	N 	0.11616 0.52423 0.95495 -0.10100
N 	N 	0.02657 0.45045 0.03367 -0.23400
N 	N 	0.05557 0.43051 0.02264 -0.20300
N 	N 	0.06224 0.40864 0.05330 -0.21100
N 	N 	0.03732 0.41230 0.08576 -0.12100
N 	N 	0.05927 0.52082 0.97846 -0.19000
N 	N 	0.06840 0.56107 0.96618 -0.09800
C 	C 	0.01509 0.43819 0.07330 0.12300
N 	N 	0.90432 0.61548 -0.00829 -0.25900
N 	N 	0.91401 0.59752 0.02250 -0.19500
N 	N 	0.91645 0.62586 0.04947 -0.05300
N 	N 	0.90890 0.66329 0.03602 -0.08600
N 	N 	0.96260 0.57648 0.07580 -0.10600
N 	N 	0.96240 0.54441 0.05245 -0.20600
N 	N 	0.99472 0.53249 0.04008 -0.19500
N 	N 	1.01732 0.55835 0.05367 -0.10000
N 	N 	0.95655 0.41676 0.00716 -0.10500
N 	N 	0.96087 0.45814 0.01084 -0.19500
N 	N 	0.93002 0.47356 0.02288 -0.20200
N 	N 	0.90425 0.44310 0.02775 -0.10100
N 	N 	0.98854 0.53215 0.95880 -0.23200
N 	N 	0.95624 0.54468 0.97009 -0.19400
N 	N 	0.94689 0.56445 0.93991 -0.20700
N 	N 	0.97292 0.56689 0.90778 -0.11600
Cl	Cl	0.13192 0.43561 0.00628 -0.76300
Cl	Cl	0.87966 0.52693 0.98850 -0.75700
C 	C 	0.90154 0.65633 -0.00011 0.10700
C 	C 	0.99661 0.58524 0.07634 0.13000
C 	C 	0.92129 0.40794 0.01819 0.14900
C 	C 	0.99890 0.54702 0.91969 0.16200
Mn	Mn	0.56412 0.95167 0.12359 1.23300
Mn	Mn	0.54541 0.03133 0.06307 1.27400
Mn	Mn	0.42874 0.01770 0.85352 1.21400
Mn	Mn	0.46321 0.94533 0.90942 1.28200
Mn	Mn	0.50577 -0.00873 -0.01690 1.26300
C 	C 	0.62919 0.01364 0.10935 0.11000
N 	N 	0.60151 0.99693 0.09583 -0.23900
N 	N 	0.59577 0.02491 0.06869 -0.19600
N 	N 	0.62032 0.05671 0.06328 -0.05700
N 	N 	0.64164 0.05039 0.08793 -0.08800
N 	N 	0.59103 0.07302 -0.00965 -0.10400
N 	N 	0.56066 0.05122 0.00461 -0.20800
N 	N 	0.54757 0.03582 -0.02515 -0.20200
N 	N 	0.57038 0.04562 0.94029 -0.09900
C 	C 	0.59655 0.07016 -0.04957 0.11400
C 	C 	0.44384 0.05425 0.07328 0.11500
N 	N 	0.49564 0.03566 0.06025 -0.20700
N 	N 	0.47383 0.05619 0.08647 -0.09700
N 	N 	0.53049 0.95579 0.01858 -0.23500
N 	N 	0.54266 0.97134 0.04846 -0.19900
N 	N 	0.55216 0.94090 0.07009 -0.21000
N 	N 	0.54771 0.90393 0.05452 -0.12000
N 	N 	0.48026 1.02136 0.03213 -0.18500
N 	N 	0.44715 1.03202 0.03958 -0.09200
C 	C 	0.53467 0.91344 0.02190 0.14900
N 	N 	0.39759 -0.02617 0.89224 -0.27200
N 	N 	0.41051 0.94474 0.91235 -0.18700
N 	N 	0.38448 0.92150 0.93672 -0.04900
N 	N 	0.35386 0.93533 0.93277 -0.08700
N 	N 	0.43009 0.89489 0.98502 -0.10500
N 	N 	0.45382 0.92560 0.96749 -0.20900
N 	N 	0.46601 0.94629 0.99465 -0.19900
N 	N 	0.45098 0.93010 0.03105 -0.11100
N 	N 	0.53313 -0.04226 0.89341 0.20500
N 	N 	0.53232 -0.03948 0.93425 -0.22700
N 	N 	0.51657 0.95211 0.90534 -0.30800
N 	N 	0.53556 0.95365 0.87120 -0.18500
N 	N 	0.47982 0.02570 0.94672 -0.23000
N 	N 	0.46350 0.00635 0.92147 -0.20300
N 	N 	0.45221 0.03399 0.89843 -0.21000
N 	N 	0.45958 0.07268 0.90817 -0.11900
Cl	Cl	0.52816 1.00568 0.12782 -0.74400
Cl	Cl	0.46878 -0.03191 0.84419 -0.76800
C 	C 	0.36237 0.96821 0.90511 0.13800
C 	C 	0.42866 0.89813 1.02461 0.15200
C 	C 	0.56887 0.96114 0.86841 0.06300
C 	C 	0.47639 0.06778 0.93852 0.12500
Mn	Mn	0.11971 0.08219 0.51953 1.21300
Mn	Mn	0.07566 0.99004 0.49953 1.27700
Mn	Mn	0.85360 0.92980 0.45915 1.21200
Mn	Mn	0.89589 0.02155 0.48240 1.27100
Mn	Mn	-0.01413 0.00653 0.49117 1.27000
C 	C 	0.12324 0.02143 0.58985 0.10300
N 	N 	0.11076 0.03041 0.55735 -0.26300
N 	N 	0.09367 0.99513 0.55048 -0.18900
N 	N 	0.09536 0.96503 0.57774 -0.05200
N 	N 	0.11379 0.98070 0.60308 -0.07700
N 	N 	0.03175 0.91826 0.55063 -0.10300
N 	N 	0.03212 0.95368 0.52857 -0.20500
N 	N 	-0.00025 0.96101 0.52609 -0.19900
N 	N 	0.97710 0.93096 0.54641 -0.09500
C 	C 	-0.00294 0.90488 0.56218 0.11500
C 	C 	0.05545 0.98449 0.38766 0.16700
N 	N 	0.05837 0.98786 0.44819 -0.19200
N 	N 	0.07791 0.98119 0.41246 -0.09500
N 	N 	0.01818 0.05004 0.51139 -0.24000
N 	N 	0.05107 0.04333 0.51211 -0.20100
N 	N 	0.06742 0.07784 0.52174 -0.21300
N 	N 	0.04552 0.10814 0.52935 -0.12400
N 	N 	0.02605 -0.00467 0.44524 -0.20500
N 	N 	0.02309 -0.00679 0.40764 -0.11500
C 	C 	0.01470 0.09052 0.52296 0.14700
N 	N 	0.86439 0.98168 0.42121 -0.26000
N 	N 	0.87961 0.01731 0.43024 -0.20100
N 	N 	0.88923 0.04332 0.39794 -0.05400
N 	N 	0.88062 0.02453 0.36698 -0.09100
N 	N 	0.93796 0.09400 0.43330 -0.11100
N 	N 	0.93887 0.05900 0.45512 -0.20900
N 	N 	0.97172 0.05243 0.45639 -0.19600
N 	N 	-0.00640 0.08286 0.43511 -0.10800
N 	N 	0.94849 1.02243 0.57431 -0.09600
N 	N 	0.94528 1.01743 0.53709 -0.18900
N 	N 	0.91272 0.02357 0.53398 -0.20200
N 	N 	0.89355 0.03323 0.56894 -0.10200
N 	N 	0.95394 0.96260 0.47095 -0.23400
N 	N 	0.92113 0.96883 0.46965 -0.19400
N 	N 	0.90535 0.93412 0.45961 -0.21000
N 	N 	0.92761 0.90415 0.45228 -0.12000
Cl	Cl	0.12331 0.03456 0.47008 -0.76400
Cl	Cl	0.84835 0.97623 0.50988 -0.75300
C 	C 	0.86548 0.98586 0.38179 0.12900
C 	C 	0.97213 0.10827 0.42085 0.15200
C 	C 	0.91617 0.03217 0.59365 0.14200
C 	C 	0.95799 0.92214 0.45951 0.15400
C 	C 	-0.01811 0.11386 0.52932 -0.14900
S 	S 	-0.00695 0.16776 0.50562 -0.00700
C 	C 	-0.01274 0.19465 0.55224 0.09500
N 	N 	-0.04302 0.19117 0.58068 -0.09100
N 	N 	-0.03729 0.21333 0.61109 -0.09400
C 	C 	-0.00357 0.23009 0.60089 0.12000
C 	C 	0.01342 0.25605 0.62830 -0.09800
C 	C 	0.02125 0.30245 0.61253 -0.10400
C 	C 	0.02788 0.33046 0.64510 0.11800
N 	N 	0.00464 0.33281 0.68049 -0.09200
N 	N 	0.01776 0.36275 0.70043 -0.08800
C 	C 	0.04877 0.37851 0.67686 0.10300
S 	S 	0.07621 0.42247 0.68876 -0.00600
C 	C 	0.03994 0.45046 0.71881 -0.10500
C 	C 	0.03205 0.44141 0.76410 0.04200
C 	C 	0.05152 0.41325 0.78150 -0.05900
C 	C 	0.04657 0.40784 0.82288 -0.00700
C 	C 	0.02153 0.42953 0.84892 -0.04100
C 	C 	-0.00167 0.45416 0.83221 0.01900
C 	C 	0.96899 0.47207 0.85588 0.00800
N 	N 	0.94928 0.49753 0.83857 -0.08500
N 	N 	0.95641 0.50605 0.79914 -0.08200
C 	C 	-0.01675 0.48884 0.77420 0.01800
C 	C 	0.00468 0.46145 0.78977 -0.02700
N 	N 	0.05586 0.35859 0.64237 -0.11800
N 	N 	0.08434 0.36871 0.60950 -0.14900
N 	N 	0.01232 0.21903 0.56407 -0.11800
N 	N 	0.04812 0.22781 0.54467 -0.15000
H 	H 	-0.03877 0.09789 0.51644 0.05200
H 	H 	-0.02876 0.11444 0.56215 0.07000
H 	H 	0.03811 0.24221 0.63193 0.05000
H 	H 	-0.00505 0.25429 0.65825 0.06300
H 	H 	0.04432 0.30507 0.58664 0.05500
H 	H 	0.99825 0.31368 0.60193 0.06400
H 	H 	0.04758 0.48487 0.71244 0.05200
H 	H 	0.01561 0.44358 0.70763 0.06100
H 	H 	0.07176 0.39595 0.76355 0.05300
H 	H 	0.06371 0.38755 0.83463 0.04000
H 	H 	0.96025 0.46524 0.88766 0.04400
H 	H 	-0.01255 0.49701 0.74248 0.02400
H 	H 	0.07395 0.37805 0.58510 0.08000
H 	H 	0.09715 0.34103 0.60256 0.07800
H 	H 	0.06299 0.21077 0.56085 0.06200
H 	H 	0.05237 0.21582 0.51608 0.07200
C 	C 	0.85767 0.94967 0.35717 -0.14600
S 	S 	0.87685 0.96049 0.30317 0.01000
C 	C 	0.84445 0.99639 0.29563 0.10800
N 	N 	0.85197 1.03802 0.28536 -0.08000
N 	N 	0.82188 1.05403 0.28249 -0.08700
C 	C 	0.79649 1.02184 0.29092 0.12100
C 	C 	0.75865 1.02626 0.28986 -0.09400
C 	C 	0.73550 0.02463 0.33252 -0.10800
C 	C 	0.69713 0.02083 0.33183 0.11800
N 	N 	0.67598 0.05285 0.34034 -0.09300
N 	N 	0.64432 0.03899 0.33570 -0.09200
C 	C 	0.64655 -0.00126 0.32441 0.10300
S 	S 	0.61142 -0.03269 0.30994 -0.01400
C 	C 	0.59714 0.01030 0.28071 -0.11700
C 	C 	0.61353 0.00772 0.23644 0.06900
C 	C 	0.59975 -0.02488 0.21652 -0.13300
C 	C 	0.61012 0.97299 0.17510 0.05200
C 	C 	0.63288 0.00505 0.15164 -0.10900
C 	C 	0.65178 0.03385 0.17167 0.05400
C 	C 	0.68075 0.06065 0.15071 -0.00300
N 	N 	0.69705 0.08908 0.17059 -0.06800
N 	N 	0.68659 0.09232 0.21005 -0.07600
C 	C 	0.65949 0.06688 0.23246 0.03300
C 	C 	0.64144 0.03612 0.21417 -0.04800
N 	N 	0.67908 -0.01376 0.32241 -0.12200
N 	N 	0.69061 0.94587 0.31298 -0.14500
N 	N 	0.81005 0.98536 0.29906 -0.11900
N 	N 	0.79371 0.94400 0.30345 -0.15200
H 	H 	0.87002 0.92163 0.36687 0.00900
H 	H 	0.82880 0.94158 0.36302 0.03800
H 	H 	0.75003 1.00080 0.27192 0.05500
H 	H 	0.75635 1.05716 0.27442 0.06700
H 	H 	0.74110 -0.00199 0.35156 0.04500
H 	H 	0.74138 0.05454 0.34672 0.05900
H 	H 	0.56796 0.00588 0.28542 0.05400
H 	H 	0.60152 0.04193 0.29204 0.06400
H 	H 	0.57933 0.95220 0.23300 0.05400
H 	H 	0.59826 0.94749 0.16135 -0.13800
H 	H 	0.69160 0.05819 0.11904 0.05000
H 	H 	0.65302 0.07090 0.26421 0.03900
H 	H 	0.70752 0.93787 0.33150 0.07600
H 	H 	0.70497 0.94770 0.28327 0.08200
H 	H 	0.78415 0.93850 0.27769 0.08000
H 	H 	0.77211 0.94277 0.32783 0.07100
C 	C 	0.99172 0.90062 0.45138 -0.15200
S 	S 	0.98313 0.84447 0.46910 0.01100
C 	C 	0.99964 0.82498 0.42007 0.10000
N 	N 	1.03412 0.82711 0.40173 -0.08600
N 	N 	1.03609 0.81329 0.36519 -0.08900
C 	C 	1.00276 0.80330 0.36161 0.11900
C 	C 	0.99393 0.78640 0.32436 -0.10000
C 	C 	1.00272 0.82058 0.29008 -0.09800
C 	C 	1.00300 0.80150 0.25058 0.12300
N 	N 	0.03166 0.78595 0.22765 -0.09400
N 	N 	1.02253 0.77311 0.19460 -0.08600
C 	C 	0.98849 0.78124 0.19763 0.10300
S 	S 	0.96299 0.76954 0.16036 0.00100
C 	C 	1.00020 0.75926 0.11862 -0.10900
C 	C 	1.00519 0.71285 0.11049 0.04700
C 	C 	0.98682 0.68020 0.13749 -0.05900
C 	C 	0.98783 0.63802 0.12741 -0.00200
C 	C 	1.00791 0.62648 0.09063 -0.03900
C 	C 	1.02970 0.65844 0.06474 0.03300
C 	C 	0.05193 0.64924 0.02826 -0.00000
N 	N 	0.07098 0.68093 0.00353 -0.07200
N 	N 	0.06960 0.72132 0.01276 -0.07400
C 	C 	0.04898 0.73278 0.04743 0.02500
C 	C 	1.02815 0.70167 0.07463 -0.02500
N 	N 	0.97568 0.79876 0.23247 -0.11800
N 	N 	0.94162 0.81220 0.24604 -0.14800
N 	N 	0.97943 0.81043 0.39567 -0.11800
N 	N 	0.94238 0.80709 0.40333 -0.15200
H 	H 	1.01129 0.91550 0.46647 0.05900
H 	H 	1.00300 0.90415 0.41855 0.07700
H 	H 	0.96554 0.77539 0.32996 0.04900
H 	H 	1.00955 0.75859 0.31621 0.06300
H 	H 	0.98309 0.84484 0.29569 0.05100
H 	H 	0.02918 0.83691 0.28840 0.06300
H 	H 	0.99405 0.77496 0.09167 0.06100
H 	H 	1.02548 0.77495 0.12231 0.06700
H 	H 	0.97017 0.68686 0.16597 0.05400
H 	H 	0.97064 0.61436 0.14745 0.04600
H 	H 	0.05509 0.61733 0.01932 0.04900
H 	H 	0.04922 0.76613 0.05314 0.03100
H 	H 	0.94428 0.84476 0.24995 0.08100
H 	H 	0.93111 0.79715 0.27427 0.07700
H 	H 	0.93425 0.77552 0.40015 0.07500
H 	H 	0.93486 0.82575 0.38121 0.06900
C 	C 	0.06502 -0.02065 0.34355 -0.15300
S 	S 	0.08099 -0.07345 0.33388 0.01000
C 	C 	0.12711 -0.05496 0.32132 0.09700
N 	N 	0.15025 0.93489 0.34352 -0.07600
N 	N 	0.18141 0.95376 0.32535 -0.08100
C 	C 	0.17685 -0.02503 0.29216 0.11200
C 	C 	0.20619 -0.00050 0.26282 -0.09700
C 	C 	0.21683 0.04088 0.28033 -0.10300
C 	C 	0.24574 0.06546 0.25046 0.11900
N 	N 	0.28041 0.06275 0.24895 -0.09300
N 	N 	0.29797 0.08570 0.21657 -0.08900
C 	C 	0.27380 0.10205 0.19874 0.10100
S 	S 	0.28398 0.13166 0.15074 -0.01000
C 	C 	0.32898 0.15278 0.15240 -0.10500
C 	C 	0.35906 0.12811 0.13021 0.04200
C 	C 	0.35325 0.08492 0.12307 -0.06100
C 	C 	0.38049 0.06202 0.10254 -0.00900
C 	C 	0.41471 0.08103 0.08949 -0.04000
C 	C 	0.42151 0.12451 0.09652 0.02400
C 	C 	0.45524 0.14589 0.08276 0.00900
N 	N 	0.46104 0.18695 0.09093 -0.07400
N 	N 	0.43550 0.20833 0.11181 -0.07700
C 	C 	0.40225 0.19033 0.12534 0.02500
C 	C 	0.39386 0.14783 0.11747 -0.02900
N 	N 	0.24098 0.08978 0.21934 -0.11800
N 	N 	0.20903 0.10157 0.21111 -0.14900
N 	N 	0.14302 -0.02996 0.28900 -0.11700
N 	N 	0.12754 -0.01405 0.25859 -0.15100
H 	H 	0.04137 -0.01807 0.33075 0.06700
H 	H 	0.08478 0.00539 0.32939 0.07400
H 	H 	0.19795 0.00624 0.23433 0.05000
H 	H 	0.22910 -0.02027 0.25586 0.05900
H 	H 	0.19376 0.06031 0.28818 0.05300
H 	H 	0.22617 0.03386 0.30814 0.06300
H 	H 	0.33088 0.18485 0.13756 0.05300
H 	H 	0.33165 0.15711 0.18372 0.06200
H 	H 	0.32772 0.06806 0.13431 0.05400
H 	H 	0.37509 0.02868 0.09835 0.03600
H 	H 	0.47696 0.13091 0.06471 0.03700
H 	H 	0.38303 0.20965 0.14234 0.02900
H 	H 	0.19601 0.11728 0.23583 0.07800
H 	H 	0.19343 0.07385 0.20947 0.07700
H 	H 	0.14109 -0.02475 0.23132 0.08000
H 	H 	0.13140 0.01903 0.25730 0.07600
C 	C 	0.98417 0.14778 0.39510 -0.14200
S 	S 	0.96972 0.14277 0.34770 0.00800
C 	C 	0.98109 0.19736 0.32881 0.09500
N 	N 	0.00006 0.22638 0.34492 -0.09300
N 	N 	0.00131 0.26279 0.32388 -0.09800
C 	C 	0.98331 0.25549 0.29503 0.12600
C 	C 	0.97470 0.28971 0.26808 -0.10000
C 	C 	0.93782 0.30351 0.28587 -0.09900
C 	C 	0.92777 0.33771 0.25989 0.11800
N 	N 	0.94532 0.37631 0.25149 -0.09200
N 	N 	0.92726 0.39913 0.23080 -0.08700
C 	C 	0.89887 0.37421 0.22691 0.10500
S 	S 	0.86398 0.39048 0.20342 -0.00500
C 	C 	0.88185 0.44558 0.18791 -0.10800
C 	C 	0.91646 0.44833 0.15660 0.04300
C 	C 	0.92048 0.41900 0.12636 -0.07000
C 	C 	0.95256 0.41693 0.09939 0.00100
C 	C 	0.98105 0.44592 0.09951 -0.06700
C 	C 	0.97802 0.47583 0.12952 0.03100
C 	C 	1.00706 0.50295 0.13316 0.01200
N 	N 	1.00306 0.53223 0.16142 -0.07200
N 	N 	0.97202 0.53608 0.18625 -0.07700
C 	C 	0.94302 0.51042 0.18505 0.02800
C 	C 	0.94530 0.47823 0.15737 -0.03100
N 	N 	0.89871 0.33571 0.24467 -0.11800
N 	N 	0.87311 0.30170 0.24744 -0.14800
N 	N 	0.97047 0.21483 0.29750 -0.11800
N 	N 	0.94873 0.19593 0.27420 -0.15300
H 	H 	1.01334 0.15319 0.38900 0.07100
H 	H 	0.97203 0.17481 0.41127 0.07100
H 	H 	0.97600 0.27783 0.23762 0.05600
H 	H 	0.99446 0.31726 0.26556 0.05900
H 	H 	0.91832 0.27560 0.28975 0.05700
H 	H 	0.93719 0.31590 0.31601 0.06000
H 	H 	0.86210 0.46169 0.17501 0.05000
H 	H 	0.88407 0.46085 0.21588 0.05900
H 	H 	0.89913 0.39604 0.12449 0.05100
H 	H 	0.95558 0.39123 0.07919 0.03400
H 	H 	0.03278 0.50153 0.11346 0.03500
H 	H 	0.91865 0.51617 0.20545 0.02800
H 	H 	0.86275 0.29376 0.27791 0.08300
H 	H 	0.88601 0.27588 0.23464 0.08400
H 	H 	0.96071 0.16933 0.26193 0.08500
H 	H 	0.92479 0.18531 0.29357 0.08600
C 	C 	0.52542 0.88041 0.99456 -0.15600
S 	S 	0.54355 0.82924 1.00258 0.00500
C 	C 	0.58987 0.84566 0.98236 0.10500
N 	N 	0.60287 0.88530 -0.03148 -0.09100
N 	N 	0.63778 0.88496 -0.04138 -0.09100
C 	C 	0.64570 0.84504 0.96624 0.12100
C 	C 	0.68275 0.83187 0.96136 -0.09800
C 	C 	0.70524 0.84510 0.91944 -0.10200
C 	C 	0.74194 0.83088 0.91493 0.12200
N 	N 	0.76498 0.84554 0.93640 -0.08900
N 	N 	0.79408 0.82519 0.92534 -0.08700
C 	C 	0.78857 0.79849 0.89709 0.10600
S 	S 	0.81892 0.76073 0.87350 -0.00800
C 	C 	0.85883 0.77854 0.89131 -0.10900
C 	C 	0.87008 0.74765 0.92054 0.04100
C 	C 	0.84835 0.71114 0.93707 -0.07000
C 	C 	0.85930 0.68188 0.96227 -0.03200
C 	C 	0.89163 0.68868 0.97319 -0.07800
C 	C 	0.91379 0.72551 0.95799 0.03000
C 	C 	0.94697 0.73330 0.96738 0.01000
N 	N 	0.96768 0.76867 0.95184 -0.06500
N 	N 	0.95755 0.79667 0.92748 -0.07100
C 	C 	0.92608 0.79114 0.91683 0.03000
C 	C 	0.90306 0.75506 0.93160 -0.03400
N 	N 	0.75625 0.80150 0.89009 -0.11800
N 	N 	0.74118 0.77832 0.86303 -0.14900
N 	N 	0.61609 0.81991 0.98106 -0.11900
N 	N 	0.61286 0.77783 0.99681 -0.15000
H 	H 	0.49649 0.87434 1.00061 0.06800
H 	H 	0.53525 0.89074 0.96271 0.06800
H 	H 	0.68235 0.79693 0.96641 0.05200
H 	H 	0.69465 0.84710 0.98451 0.06200
H 	H 	0.69252 0.83121 0.89630 0.05600
H 	H 	0.70706 0.88019 0.91468 0.07200
H 	H 	0.88021 0.78265 0.86368 0.05800
H 	H 	0.85633 0.80989 0.90454 0.06800
H 	H 	0.82257 0.70455 0.93088 0.04500
H 	H 	0.84209 0.65377 0.97381 -0.00300
H 	H 	0.95686 0.71153 -0.01339 0.04500
H 	H 	0.91955 0.81508 0.89691 0.03400
H 	H 	0.73474 0.80001 0.84247 0.08500
H 	H 	0.71791 0.76202 0.87929 0.08000
H 	H 	0.62701 0.77687 1.01946 0.07800
H 	H 	0.62479 0.75900 0.97394 0.08100
C 	C 	0.90316 0.36488 0.01896 -0.14700
S 	S 	0.88950 0.35869 -0.02882 0.01000
C 	C 	0.84839 0.32644 -0.00988 0.09100
N 	N 	0.83814 0.30718 0.02712 -0.08700
N 	N 	0.80642 0.28768 0.02960 -0.09500
C 	C 	0.79777 0.29494 0.99397 0.13600
C 	C 	0.76271 0.28077 0.98529 -0.10100
C 	C 	0.75526 0.23229 0.99021 -0.10100
C 	C 	0.76505 0.21207 0.95068 0.12500
N 	N 	0.79431 0.19099 0.93929 -0.08800
N 	N 	0.79369 0.17616 0.90361 -0.08700
C 	C 	0.76406 0.18838 0.89373 0.10500
S 	S 	0.75013 0.17362 0.84871 0.00200
C 	C 	0.74100 0.11668 0.86441 -0.10800
C 	C 	0.70284 0.10335 0.88515 0.04300
C 	C 	0.67612 0.13179 0.88719 -0.06100
C 	C 	0.64139 0.12006 0.90698 -0.01000
C 	C 	0.63196 0.07939 0.92479 -0.03700
C 	C 	0.65791 0.04982 0.92279 0.03100
C 	C 	0.64942 0.00849 -0.05949 -0.00300
N 	N 	0.67479 -0.01922 0.93791 -0.06600
N 	N 	0.70803 -0.00843 0.91890 -0.07700
C 	C 	0.71817 0.03080 0.90117 0.02800
C 	C 	0.69334 0.06155 0.90267 -0.03200
N 	N 	0.74568 0.21095 0.92252 -0.11700
N 	N 	0.71169 0.22454 0.92477 -0.14900
N 	N 	0.82364 0.31901 0.96885 -0.11400
N 	N 	0.82447 0.33303 0.92921 -0.15100
H 	H 	0.92156 0.34035 0.02236 0.06900
H 	H 	0.88047 0.36170 1.04524 0.08000
H 	H 	0.76147 0.29258 0.95463 0.06300
H 	H 	0.74189 0.29580 1.00670 0.05600
H 	H 	0.77000 0.21835 1.01132 0.06900
H 	H 	0.72676 0.22423 1.00349 0.05500
H 	H 	0.74839 0.09819 0.83728 0.05700
H 	H 	0.75849 0.10824 0.88466 0.06400
H 	H 	0.68153 0.16348 0.87349 0.05600
H 	H 	0.62186 0.14318 0.90883 0.04400
H 	H 	0.62274 -0.00231 -0.04426 0.04400
H 	H 	0.74554 0.03724 0.88604 0.03000
H 	H 	0.71290 0.25727 0.92793 0.08300
H 	H 	0.69506 0.21012 0.95072 0.08500
H 	H 	0.82852 0.36609 0.92741 0.08700
H 	H 	0.84643 0.32109 0.91079 0.09100
C 	C 	0.33680 -0.00314 0.89300 -0.15800
S 	S 	0.29158 -0.01566 0.92338 0.00400
C 	C 	0.27044 -0.01690 0.88135 0.08500
N 	N 	0.25947 0.94708 0.86646 -0.07800
N 	N 	0.24530 0.95836 0.83606 -0.08500
C 	C 	0.24776 0.00110 0.83292 0.11600
C 	C 	0.23462 0.02660 0.80231 -0.09900
C 	C 	0.26551 0.04942 0.77161 -0.09800
C 	C 	0.25233 0.07149 0.73890 0.11700
N 	N 	0.25416 0.05616 0.70227 -0.09100
N 	N 	0.23871 0.08279 0.68192 -0.08600
C 	C 	0.22755 0.11393 0.70642 0.10600
S 	S 	0.20482 0.15890 0.69367 -0.00800
C 	C 	0.21229 0.15387 0.63889 -0.10400
C 	C 	0.19185 0.11531 0.62768 0.03800
C 	C 	0.15520 0.11185 0.64316 -0.07500
C 	C 	0.13355 0.07996 0.63205 -0.02000
C 	C 	0.14779 0.05038 0.60499 -0.08700
C 	C 	0.18468 0.05194 0.58967 0.01400
C 	C 	0.19995 0.02157 0.56351 -0.00800
N 	N 	0.23532 0.02415 0.54882 -0.07300
N 	N 	0.25635 0.05497 0.55859 -0.07800
C 	C 	0.24353 0.08524 0.58373 0.02500
C 	C 	0.20702 0.08475 0.60057 -0.03500
N 	N 	0.23554 0.10751 0.74224 -0.11700
N 	N 	0.22954 0.13456 0.77437 -0.14900
N 	N 	0.26320 0.01737 0.86104 -0.11700
N 	N 	0.26805 0.06038 0.86888 -0.15300
H 	H 	0.34498 0.03002 0.89841 0.02000
H 	H 	0.33805 -0.00530 0.86035 0.03100
H 	H 	0.21693 0.04950 0.81822 0.05700
H 	H 	0.21877 0.00542 0.78662 0.06200
H 	H 	0.28045 0.07265 0.78637 0.05000
H 	H 	0.28392 0.02573 0.75807 0.05400
H 	H 	0.20213 0.18244 0.62686 0.04300
H 	H 	0.24096 0.15642 0.62604 0.05300
H 	H 	0.14303 0.13468 0.66367 0.04600
H 	H 	0.10530 0.07900 0.64402 0.02200
H 	H 	0.18396 -0.00440 0.55507 0.03900
H 	H 	0.26253 0.10863 0.59005 0.03100
H 	H 	0.25403 0.14715 0.77807 0.07900
H 	H 	0.21724 0.11652 0.80040 0.08200
H 	H 	0.25437 0.06443 0.89827 0.08100
H 	H 	0.29491 0.06746 0.86727 0.06800
C 	C 	0.03418 0.54488 0.89235 -0.16400
S 	S 	0.05653 0.59857 0.88431 0.02700
C 	C 	0.03143 0.62145 0.85159 0.10200
N 	N 	0.01679 0.65868 0.85813 -0.08800
N 	N 	0.00626 0.67002 0.82519 -0.09400
C 	C 	0.01504 0.63980 0.79874 0.11100
C 	C 	1.01175 0.64396 0.75590 -0.08600
C 	C 	0.97296 0.64333 0.75304 -0.10400
C 	C 	0.96911 0.66973 0.71711 0.12100
N 	N 	0.95621 0.70832 0.71927 -0.09100
N 	N 	0.95533 0.72129 0.68216 -0.08600
C 	C 	0.96768 0.69044 0.65783 0.10500
S 	S 	0.96961 0.69074 0.60431 -0.00400
C 	C 	0.93816 0.73178 0.60298 -0.10500
C 	C 	0.95384 0.77760 0.59965 0.04200
C 	C 	0.99015 0.78710 0.58356 -0.05200
C 	C 	0.00431 0.82882 0.57479 -0.01800
C 	C 	0.98287 0.86275 0.58175 -0.02800
C 	C 	0.94681 0.85442 0.60147 0.02300
C 	C 	0.92484 0.88739 0.61371 0.01200
N 	N 	0.89019 0.87835 0.63072 -0.06400
N 	N 	0.87589 0.83867 0.63629 -0.07300
C 	C 	0.89540 0.80523 0.62598 0.02500
C 	C 	0.93198 0.81185 0.60925 -0.02400
N 	N 	0.97678 0.65812 0.67890 -0.11700
N 	N 	0.98895 0.61968 0.66422 -0.14600
N 	N 	0.03077 0.60892 0.81468 -0.11600
N 	N 	0.04750 0.57482 0.79555 -0.15000
H 	H 	0.05040 0.52371 0.90572 0.06100
H 	H 	1.03118 0.53170 0.86363 0.08500
H 	H 	0.02447 0.61804 0.73851 0.04400
H 	H 	0.02632 0.67440 0.74275 0.05700
H 	H 	0.96241 0.61016 0.75110 0.05100
H 	H 	0.95657 0.65606 0.78027 0.05700
H 	H 	0.92622 0.72660 0.57674 0.05300
H 	H 	0.91673 0.72529 0.63014 0.06000
H 	H 	1.00785 0.76232 0.57555 0.05200
H 	H 	0.03192 0.83436 0.56001 0.04100
H 	H 	0.93484 0.92025 0.61080 0.05300
H 	H 	0.88176 0.77410 0.63108 0.02900
H 	H 	0.97133 0.59516 0.67966 0.08100
H 	H 	0.01339 0.61647 0.67142 0.07800
H 	H 	0.06706 0.58720 0.77106 0.08600
H 	H 	0.02864 0.55679 0.78454 0.08300
C 	C 	0.90755 0.04451 0.63603 -0.14000
S 	S 	0.90835 -0.00167 0.67002 0.00700
C 	C 	0.86121 -0.01428 0.68056 0.09200
N 	N 	0.84576 0.95260 0.66557 -0.06900
N 	N 	0.81110 0.95483 0.67734 -0.08200
C 	C 	0.80594 -0.01071 0.69937 0.12000
C 	C 	0.77051 0.00481 0.71644 -0.09700
C 	C 	0.76527 0.04486 0.69251 -0.10100
C 	C 	0.73164 0.06325 0.71185 0.12000
N 	N 	0.69950 0.04763 0.70824 -0.09200
N 	N 	0.67598 0.07019 0.73087 -0.08700
C 	C 	0.69406 0.09918 0.74814 0.10400
S 	S 	0.67448 0.13654 0.78403 -0.00600
C 	C 	0.62802 0.12117 0.78372 -0.10400
C 	C 	0.61436 0.07654 0.80116 0.04100
C 	C 	0.63097 0.05556 0.82811 -0.05100
C 	C 	0.61703 0.01641 0.84682 -0.02000
C 	C 	0.58643 -0.00365 0.83909 -0.01700
C 	C 	0.57252 0.01369 0.80742 0.00800
C 	C 	0.54765 0.99065 0.79089 0.03400
N 	N 	0.53207 1.00984 0.76406 -0.06900
N 	N 	0.54039 0.05041 0.75197 -0.08900
C 	C 	0.56601 0.07390 0.76445 0.02000
C 	C 	0.58449 0.05528 0.79093 -0.02000
N 	N 	0.72882 0.09562 0.73658 -0.11800
N 	N 	0.75565 0.11924 0.74964 -0.14900
N 	N 	0.83684 0.00906 0.70195 -0.11700
N 	N 	0.84193 0.04370 0.72518 -0.15300
H 	H 	0.92746 0.06963 0.64021 0.06400
H 	H 	0.88149 0.05809 0.64194 0.06700
H 	H 	0.76880 0.01152 0.74849 0.05900
H 	H 	0.74955 -0.02033 0.71499 0.06100
H 	H 	0.78775 0.06889 0.69050 0.05800
H 	H 	0.76419 0.03674 0.66139 0.06000
H 	H 	0.61117 0.14416 0.80108 0.05500
H 	H 	0.62625 0.12518 0.75182 0.05900
H 	H 	0.65421 0.06999 0.83609 0.05300
H 	H 	0.62943 0.00253 0.86899 0.04400
H 	H 	0.54094 0.95739 0.79841 0.06100
H 	H 	0.57154 0.10680 0.75353 0.02700
H 	H 	0.77328 0.13341 0.72426 0.08300
H 	H 	0.76894 0.09806 0.76406 0.08200
H 	H 	0.85800 0.03463 0.74432 0.08500
H 	H 	0.85560 0.06861 0.70599 0.08000
C 	C 	0.40306 0.87277 1.05750 -0.14200
S 	S 	0.35771 0.88013 1.05258 0.02300
C 	C 	0.35133 0.83447 1.02367 0.11100
N 	N 	0.37708 0.81172 0.00370 -0.09400
N 	N 	0.36155 0.78109 0.98663 -0.09000
C 	C 	0.32647 0.78570 0.99618 0.11900
C 	C 	0.29910 0.75652 0.98391 -0.09900
C 	C 	0.30857 0.74941 0.93876 -0.10200
C 	C 	0.27658 0.73414 0.92421 0.12100
N 	N 	0.26903 0.69347 0.91670 -0.09000
N 	N 	0.24066 0.69269 0.90112 -0.08700
C 	C 	0.23135 0.73291 0.89910 0.10300
S 	S 	0.19616 0.75002 0.87655 0.00900
C 	C 	0.18915 0.70070 0.85109 -0.10900
C 	C 	0.16768 0.66389 0.87721 0.04800
C 	C 	0.15413 0.66762 0.91860 -0.05600
C 	C 	0.13349 0.63452 0.94219 -0.00100
C 	C 	0.12535 0.59678 0.92545 -0.03900
C 	C 	0.13940 0.59135 0.88404 0.02600
C 	C 	0.13204 0.55373 0.86546 0.01000
N 	N 	0.14459 0.55053 0.82554 -0.07300
N 	N 	0.16437 0.58207 0.80290 -0.07500
C 	C 	0.17283 0.61901 0.81861 0.02800
C 	C 	0.16034 0.62509 0.85984 -0.02700
N 	N 	0.25321 0.75930 0.91367 -0.11700
N 	N 	0.25377 0.80373 0.91324 -0.14600
N 	N 	0.31973 0.81910 1.01923 -0.11700
N 	N 	0.28716 0.83549 1.03517 -0.14800
H 	H 	0.40570 0.88493 1.08689 0.06900
H 	H 	0.40863 0.83880 1.05813 0.07000
H 	H 	0.27289 0.76976 0.99239 0.05400
H 	H 	0.29725 0.72557 1.00095 0.05900
H 	H 	0.32054 0.77901 0.92122 0.05900
H 	H 	0.32845 0.72542 0.93283 0.06300
H 	H 	0.17521 0.70911 0.82719 0.06000
H 	H 	0.21538 0.69062 0.83604 0.06300
H 	H 	0.15930 0.69604 0.93349 0.06000
H 	H 	0.12438 0.63805 0.97405 0.04800
H 	H 	0.11563 0.52718 0.88182 0.03000
H 	H 	0.18907 0.64321 0.79848 0.03100
H 	H 	0.27785 0.81582 0.89503 0.08800
H 	H 	0.25324 0.81281 0.94242 0.08500
H 	H 	0.27105 0.81174 1.05371 0.08500
H 	H 	0.27561 0.84292 1.01126 0.08600
C 	C 	0.10236 0.27396 1.01587 -0.14200
S 	S 	0.12646 0.23578 0.98255 -0.00100
C 	C 	0.16933 0.24160 0.99546 0.09500
N 	N 	0.17744 0.26565 0.02439 -0.10900
N 	N 	0.21104 0.26099 0.02466 -0.10400
C 	C 	0.22312 0.23418 0.99588 0.12900
C 	C 	0.26036 0.22106 0.98635 -0.10100
C 	C 	0.28344 0.24857 0.95108 -0.09800
C 	C 	0.32136 0.25374 0.95455 0.11700
N 	N 	0.33453 0.28605 0.97289 -0.09100
N 	N 	0.36872 0.28137 0.96929 -0.08700
C 	C 	0.37603 0.24620 0.94889 0.10100
S 	S 	0.42010 0.22868 0.93261 -0.00500
C 	C 	0.43099 0.22365 0.98241 -0.10900
C 	C 	0.44991 0.18351 0.98380 0.04800
C 	C 	0.42905 0.14640 0.99905 -0.06800
C 	C 	0.44101 0.10688 0.98944 0.00300
C 	C 	0.47488 0.10260 0.96596 -0.06300
C 	C 	0.49789 0.13955 0.95448 0.02700
C 	C 	0.53219 0.13732 0.93141 0.00700
N 	N 	0.55352 0.17321 0.91983 -0.07500
N 	N 	0.54227 0.21132 0.92852 -0.07700
C 	C 	0.50887 0.21611 0.94910 0.02800
C 	C 	0.48552 0.18020 0.96320 -0.03000
N 	N 	0.34699 0.22859 0.93890 -0.11700
N 	N 	0.34389 0.19044 0.91975 -0.15200
N 	N 	0.19754 0.22172 0.97718 -0.11800
N 	N 	0.20015 0.19498 0.94493 -0.15200
H 	H 	0.07685 0.25781 1.03234 0.05100
H 	H 	0.11657 0.28579 1.03846 0.01000
H 	H 	0.26032 0.18707 0.97915 0.05500
H 	H 	0.27111 0.22419 1.01374 0.06100
H 	H 	0.28174 0.23433 0.92230 0.05200
H 	H 	0.27361 0.28075 0.95018 0.06100
H 	H 	0.44711 0.25199 0.98788 0.06200
H 	H 	0.40642 0.22187 1.00639 0.06300
H 	H 	0.40186 0.14785 1.01501 0.05100
H 	H 	0.42162 0.07994 0.99534 0.03500
H 	H 	0.54196 0.10740 -0.07771 0.03600
H 	H 	0.50119 0.24791 0.95426 0.03200
H 	H 	0.33477 0.19710 0.89381 0.07500
H 	H 	0.32459 0.17027 0.93903 0.07600
H 	H 	0.18060 0.17007 0.95352 0.08300
H 	H 	0.19407 0.21230 0.92103 0.08300
