data_crystal

_cell_length_a 38.31500
_cell_length_b 37.56090
_cell_length_c 18.17500
_cell_angle_alpha 93.89180
_cell_angle_beta  92.14420
_cell_angle_gamma 88.99850

_symmetry_space_group_name_	'P 1'
_symmetry_space_group_name_H-M	'P 1'

loop_
_symmetry_equiv_pos_as_xyz
  x,y,z

loop_
_atom_site_label
_atom_site_type_symbol
_atom_site_fract_x
_atom_site_fract_y
_atom_site_fract_z
_atom_site_charge
C 	C 	0.18163 0.16818 0.33081 -0.08500
O 	O 	0.14439 0.17139 0.31994 -0.19400
C 	C 	0.12543 0.19066 0.37511 0.22200
C 	C 	0.13647 0.19338 0.45001 -0.19300
C 	C 	0.12031 0.21814 0.50035 0.21300
O 	O 	0.13307 0.22548 0.57361 -0.19600
C 	C 	0.16856 0.21555 0.59048 -0.07200
C 	C 	0.09127 0.23778 0.47604 -0.19200
C 	C 	0.07915 0.23464 0.40221 0.22100
O 	O 	0.05181 0.25781 0.38097 -0.23200
C 	C 	0.03782 0.25371 0.30676 0.06800
C 	C 	0.01035 0.28288 0.29336 -0.11800
C 	C 	0.97975 0.28581 0.34490 0.03400
C 	C 	0.97415 0.25942 0.39443 -0.02600
C 	C 	0.94679 0.26242 0.44263 -0.06600
C 	C 	0.92362 0.29160 0.44316 0.09100
C 	C 	0.89219 0.29110 0.49168 -0.26200
C 	C 	0.92830 0.31867 0.39357 -0.01800
C 	C 	0.90545 0.34858 0.39171 -0.02400
C 	C 	0.90941 0.37425 0.34091 -0.02900
C 	C 	0.93607 0.37079 0.29107 -0.01500
C 	C 	0.95919 0.34179 0.29201 -0.03600
C 	C 	0.95610 0.31539 0.34332 0.01000
C 	C 	0.09632 0.21042 0.35230 -0.19700
H 	H 	0.19236 0.15416 0.28073 0.02300
H 	H 	0.18830 0.15134 0.37741 0.03700
H 	H 	0.15806 0.17706 0.46846 0.09000
H 	H 	0.18551 0.22059 0.54393 0.07100
H 	H 	0.17033 0.18681 0.60141 0.06500
H 	H 	0.07865 0.25675 0.51453 0.10200
H 	H 	0.05886 0.25713 0.26742 0.02000
H 	H 	0.02619 0.22687 0.29529 0.01900
H 	H 	-0.00019 0.27862 0.23566 0.05900
H 	H 	0.02448 0.30858 0.29836 0.06400
H 	H 	-0.00956 0.23571 0.39580 0.05100
H 	H 	0.94320 0.24111 0.47877 0.05000
H 	H 	0.89543 0.27031 0.53224 0.09400
H 	H 	0.88985 0.31702 0.52451 0.09400
H 	H 	0.88410 0.35241 0.42875 0.03300
H 	H 	0.89153 0.39684 0.33984 0.03700
H 	H 	0.93881 0.39065 0.25125 0.03700
H 	H 	0.97908 0.34021 0.25130 0.04100
H 	H 	0.08861 0.20785 0.29443 0.09700
C 	C 	0.80858 0.17196 0.37495 -0.12100
O 	O 	0.77439 0.15890 0.35515 -0.19400
C 	C 	0.75758 0.13929 0.40637 0.21100
C 	C 	0.75574 0.15100 0.48139 -0.19800
C 	C 	0.73506 0.13267 0.52905 0.20400
O 	O 	0.72935 0.14418 0.60331 -0.18300
C 	C 	0.74670 0.17550 0.63382 -0.11600
C 	C 	0.71763 0.10199 0.50090 -0.19300
C 	C 	0.71948 0.08968 0.42677 0.21700
O 	O 	0.70073 0.05868 0.40361 -0.23400
C 	C 	0.70265 0.04501 0.32842 0.06800
C 	C 	0.68082 0.01117 0.31585 -0.11800
C 	C 	0.69206 0.97944 0.36010 0.03200
C 	C 	0.72334 0.97994 0.40326 -0.02800
C 	C 	0.73324 0.95150 0.44485 -0.06500
C 	C 	0.71224 0.92150 0.44652 0.08700
C 	C 	0.72490 0.89185 0.49438 -0.26200
C 	C 	0.68039 0.92003 0.40374 -0.02200
C 	C 	0.65783 0.89069 0.40437 -0.03500
C 	C 	0.62767 0.88856 0.35912 -0.03300
C 	C 	0.61904 0.91571 0.31317 -0.02000
C 	C 	0.64011 0.94557 0.31317 -0.03800
C 	C 	0.67084 0.94862 0.35864 0.00700
C 	C 	0.73915 0.10906 0.37947 -0.20300
H 	H 	0.82670 0.16030 0.33313 0.08100
H 	H 	0.81884 0.16378 0.42948 0.06700
H 	H 	0.76936 0.17490 0.50095 0.09500
H 	H 	0.74089 0.19821 0.59888 0.06300
H 	H 	0.77531 0.17028 0.63761 0.07500
H 	H 	0.70194 0.08769 0.53718 0.10300
H 	H 	0.69159 0.06512 0.29145 0.01700
H 	H 	0.73013 0.03896 0.31368 0.01800
H 	H 	0.68101 0.00251 0.25615 0.05600
H 	H 	0.65358 0.01897 0.32961 0.06400
H 	H 	0.74078 0.00229 0.40561 0.05100
H 	H 	0.75772 0.95315 0.47655 0.05200
H 	H 	0.74967 0.89906 0.52515 0.09600
H 	H 	0.70517 0.88819 0.53647 0.09900
H 	H 	0.66309 0.86910 0.43968 0.03700
H 	H 	0.61092 0.86567 0.35956 0.03200
H 	H 	0.59575 0.91376 0.27762 0.03600
H 	H 	0.63199 0.96596 0.27672 0.04000
H 	H 	0.74044 0.10117 0.32137 0.09300
C 	C 	0.18831 0.74740 0.85706 -0.11800
O 	O 	0.16001 0.77231 0.84679 -0.18500
C 	C 	0.13579 0.77733 0.90301 0.21200
C 	C 	0.14531 0.77479 -0.02226 -0.20600
C 	C 	0.12005 0.77774 0.03167 0.21200
O 	O 	0.12869 0.77163 0.10544 -0.18300
C 	C 	0.14541 0.73778 0.11499 -0.12300
C 	C 	0.08582 0.78756 0.01174 -0.20100
C 	C 	0.07612 0.79278 0.93815 0.21800
O 	O 	0.04128 0.80344 0.92291 -0.23400
C 	C 	0.03272 0.81677 0.85244 0.06800
C 	C 	0.99500 0.83119 0.85113 -0.11800
C 	C 	0.96678 0.80477 0.86701 0.02900
C 	C 	0.97318 0.76778 0.85773 -0.02700
C 	C 	0.94899 0.74348 0.87798 -0.07100
C 	C 	0.91742 0.75486 0.90859 0.08900
C 	C 	0.89445 0.72660 0.93661 -0.26100
C 	C 	0.90922 0.79199 0.91527 -0.02000
C 	C 	0.87756 0.80507 0.94517 -0.01400
C 	C 	0.86923 0.84138 0.94858 -0.02600
C 	C 	0.89212 0.86546 0.92247 -0.01900
C 	C 	0.92395 0.85355 0.89449 -0.04000
C 	C 	0.93356 0.81695 0.89188 0.00600
C 	C 	0.10138 0.78700 0.88368 -0.20500
H 	H 	0.18898 0.72851 0.80730 0.07400
H 	H 	0.18528 0.73052 0.90439 0.06900
H 	H 	0.17241 0.77111 -0.00568 0.09800
H 	H 	0.16887 0.73369 0.08132 0.06600
H 	H 	0.12678 0.71597 0.09860 0.07500
H 	H 	0.06656 0.79117 0.05375 0.10100
H 	H 	0.05024 0.83923 0.84309 0.01500
H 	H 	0.03607 0.79579 0.80710 0.01500
H 	H 	0.98877 0.84214 0.79686 0.05300
H 	H 	0.99475 0.85369 0.89408 0.06300
H 	H 	-0.00278 0.75703 0.83561 0.04600
H 	H 	0.95541 0.71527 0.87105 0.05100
H 	H 	0.91022 0.70217 0.94702 0.09700
H 	H 	0.88434 0.73575 0.99124 0.09000
H 	H 	0.85873 0.78763 0.96601 0.04500
H 	H 	0.84477 0.85085 0.97124 0.04800
H 	H 	0.88523 0.89356 0.92422 0.03800
H 	H 	0.94056 0.87339 0.87420 0.03800
H 	H 	0.09486 0.78991 0.82608 0.09400
C 	C 	0.30850 0.67213 0.87476 -0.12100
O 	O 	0.27433 0.65905 0.85471 -0.19400
C 	C 	0.25748 0.63945 0.90592 0.21200
C 	C 	0.25563 0.65123 -0.01910 -0.19900
C 	C 	0.23505 0.63285 0.02870 0.20500
O 	O 	0.22942 0.64435 0.10296 -0.18300
C 	C 	0.24691 0.67552 0.13353 -0.11600
C 	C 	0.21764 0.60215 0.00066 -0.19500
C 	C 	0.21949 0.58979 0.92658 0.21900
O 	O 	0.20069 0.55880 0.90364 -0.23400
C 	C 	0.20305 0.54462 0.82891 0.06800
C 	C 	0.18112 0.51081 0.81687 -0.11800
C 	C 	0.19193 0.47944 0.86256 0.03200
C 	C 	0.22286 0.48025 0.90686 -0.02800
C 	C 	0.23252 0.45204 0.94929 -0.06500
C 	C 	0.21166 0.42192 0.95047 0.08700
C 	C 	0.22450 0.39213 0.99779 -0.26300
C 	C 	0.18008 0.42018 0.90674 -0.02300
C 	C 	0.15769 0.39067 0.90677 -0.03700
C 	C 	0.12779 0.38833 0.86072 -0.03500
C 	C 	0.11927 0.41541 0.81455 -0.02100
C 	C 	0.14022 0.44537 0.81490 -0.03800
C 	C 	0.17072 0.44862 0.86109 0.00700
C 	C 	0.23913 0.60913 0.87914 -0.20300
H 	H 	0.32670 0.66045 0.83312 0.08100
H 	H 	0.31871 0.66396 0.92933 0.06800
H 	H 	0.26917 0.67520 0.00035 0.09500
H 	H 	0.24111 0.69834 0.09882 0.06300
H 	H 	0.27554 0.67021 0.13698 0.07500
H 	H 	0.20201 0.58783 0.03704 0.10300
H 	H 	0.19229 0.56447 0.79102 0.01700
H 	H 	0.23062 0.53836 0.81515 0.01900
H 	H 	0.18169 0.50168 0.75746 0.05700
H 	H 	0.15381 0.51884 0.82958 0.06400
H 	H 	0.24029 0.50260 0.90929 0.05100
H 	H 	0.25680 0.45386 0.98166 0.05200
H 	H 	0.24902 0.39947 1.02933 0.09600
H 	H 	0.20460 0.38779 1.03916 0.09900
H 	H 	0.16290 0.36911 0.94216 0.03700
H 	H 	0.11117 0.36531 0.86072 0.03000
H 	H 	0.09616 0.41331 0.77847 0.03500
H 	H 	0.13223 0.46566 0.77813 0.04000
H 	H 	0.24043 0.60115 0.82107 0.09300
C 	C 	0.68734 0.24805 0.35586 -0.11900
O 	O 	0.65931 0.27337 0.34662 -0.18500
C 	C 	0.63508 0.27798 0.40286 0.21100
C 	C 	0.64462 0.27511 0.47750 -0.20400
C 	C 	0.61934 0.27781 0.53144 0.21100
O 	O 	0.62798 0.27161 0.60515 -0.18300
C 	C 	0.64485 0.23784 0.61456 -0.12300
C 	C 	0.58510 0.28764 0.51166 -0.20000
C 	C 	0.57540 0.29312 0.43820 0.21700
O 	O 	0.54056 0.30379 0.42315 -0.23400
C 	C 	0.53192 0.31709 0.35272 0.06900
C 	C 	0.49421 0.33146 0.35181 -0.11900
C 	C 	0.46616 0.30506 0.36868 0.03000
C 	C 	0.47270 0.26807 0.36024 -0.02700
C 	C 	0.44866 0.24381 0.38126 -0.07100
C 	C 	0.41706 0.25523 0.41163 0.08900
C 	C 	0.39390 0.22697 0.43893 -0.26200
C 	C 	0.40876 0.29236 0.41772 -0.02000
C 	C 	0.37708 0.30546 0.44752 -0.01400
C 	C 	0.36873 0.34176 0.45067 -0.02600
C 	C 	0.39156 0.36580 0.42425 -0.01900
C 	C 	0.42334 0.35386 0.39609 -0.04000
C 	C 	0.43299 0.31727 0.39379 0.00600
C 	C 	0.60065 0.28762 0.38369 -0.20400
H 	H 	0.68767 0.22943 0.30568 0.07400
H 	H 	0.68425 0.23095 0.40281 0.06900
H 	H 	0.67175 0.27138 0.49395 0.09800
H 	H 	0.66835 0.23393 0.58095 0.06600
H 	H 	0.62634 0.21594 0.59801 0.07600
H 	H 	0.56582 0.29108 0.55366 0.10000
H 	H 	0.54940 0.33954 0.34317 0.01500
H 	H 	0.53517 0.29606 0.30741 0.01500
H 	H 	0.48773 0.34220 0.29745 0.05300
H 	H 	0.49410 0.35408 0.39448 0.06300
H 	H 	0.49672 0.25728 0.33812 0.04600
H 	H 	0.45515 0.21561 0.37481 0.05100
H 	H 	0.40956 0.20250 0.44963 0.09700
H 	H 	0.38338 0.23605 0.49322 0.09000
H 	H 	0.35827 0.28805 0.46853 0.04500
H 	H 	0.34431 0.35125 0.47343 0.04800
H 	H 	0.38467 0.39390 0.42589 0.03800
H 	H 	0.43989 0.37366 0.37548 0.03800
H 	H 	0.59414 0.29075 0.32616 0.09400
C 	C 	0.65296 0.37412 0.88998 -0.06800
O 	O 	0.67992 0.39337 0.85823 -0.19900
C 	C 	0.71368 0.39471 0.89231 0.21100
C 	C 	0.72165 0.38411 0.96408 -0.20000
C 	C 	0.75614 0.38610 -0.00605 0.20700
O 	O 	0.76656 0.37446 0.06361 -0.19400
C 	C 	0.74039 0.36363 0.11111 -0.06500
C 	C 	0.78204 0.39992 0.95249 -0.19100
C 	C 	0.77470 0.41146 0.88204 0.22100
O 	O 	0.80237 0.42720 0.84744 -0.23200
C 	C 	0.79866 0.43605 0.77219 0.07000
C 	C 	0.82482 0.46511 0.75897 -0.11900
C 	C 	0.81649 0.49931 0.80510 0.03100
C 	C 	0.83807 0.50831 0.86738 -0.03200
C 	C 	0.83118 0.53854 0.91354 -0.06500
C 	C 	0.80157 0.56010 0.90124 0.07900
C 	C 	0.79734 0.59458 0.94959 -0.25500
C 	C 	0.77787 0.55007 0.84156 -0.02100
C 	C 	0.74585 0.56852 0.83095 -0.03900
C 	C 	0.72439 0.56071 0.76856 -0.03600
C 	C 	0.73426 0.53433 0.71571 -0.02000
C 	C 	0.76491 0.51454 0.72641 -0.04100
C 	C 	0.78656 0.52100 0.79050 0.00500
C 	C 	0.74031 0.40813 0.85196 -0.20000
H 	H 	0.62820 0.37886 0.85834 0.06900
H 	H 	0.64856 0.38443 0.94775 0.05800
H 	H 	0.70131 0.37447 -0.00363 0.09300
H 	H 	0.72478 0.34156 0.08356 0.05300
H 	H 	0.72318 0.38674 0.12742 0.06100
H 	H 	0.80844 0.40189 -0.02422 0.10300
H 	H 	0.80393 0.41187 0.73539 0.01900
H 	H 	0.77236 0.44651 0.75833 0.01600
H 	H 	0.82485 0.47023 0.69952 0.05100
H 	H 	0.85152 0.45495 0.77319 0.06200
H 	H 	0.86060 0.49176 0.88051 0.04300
H 	H 	0.84925 0.54505 0.95954 0.04800
H 	H 	0.77342 0.59313 0.98189 0.09700
H 	H 	0.81974 0.59834 0.98984 0.09400
H 	H 	0.73681 0.58877 0.87107 0.02600
H 	H 	0.70008 0.57535 0.76109 0.03400
H 	H 	0.71784 0.52885 0.66659 0.03700
H 	H 	0.77128 0.49427 0.68379 0.03800
H 	H 	0.73313 0.41586 0.79745 0.09700
C 	C 	0.68024 0.67072 0.83248 -0.08200
O 	O 	0.64357 0.67576 0.81642 -0.19400
C 	C 	0.62346 0.69564 0.86881 0.22200
C 	C 	0.63253 0.69901 -0.05505 -0.19200
C 	C 	0.61434 0.72340 -0.00721 0.21200
O 	O 	0.62418 0.73135 0.06778 -0.19300
C 	C 	0.65651 0.71730 0.09651 -0.06700
C 	C 	0.58558 0.74214 0.96427 -0.18800
C 	C 	0.57552 0.73837 0.88933 0.22100
O 	O 	0.54797 0.76043 0.86483 -0.23200
C 	C 	0.53435 0.75461 0.79064 0.06800
C 	C 	0.50542 0.78221 0.77595 -0.11800
C 	C 	0.47627 0.78557 0.83115 0.03500
C 	C 	0.47162 0.75897 0.88068 -0.02500
C 	C 	0.44614 0.76242 0.93318 -0.06400
C 	C 	0.42378 0.79222 0.93791 0.09000
C 	C 	0.39326 0.79145 0.98883 -0.26200
C 	C 	0.42731 0.81943 0.88808 -0.01800
C 	C 	0.40499 0.84981 0.88997 -0.02500
C 	C 	0.40746 0.87543 0.83851 -0.02900
C 	C 	0.43206 0.87140 0.78421 -0.01400
C 	C 	0.45465 0.84192 0.78137 -0.03500
C 	C 	0.45314 0.81565 0.83338 0.01100
C 	C 	0.59460 0.71466 0.84203 -0.19700
H 	H 	0.69179 0.65576 0.78437 0.02300
H 	H 	0.68451 0.65396 0.88009 0.03800
H 	H 	0.65381 0.68315 -0.03385 0.08900
H 	H 	0.67745 0.71755 0.05593 0.06300
H 	H 	0.65273 0.68956 0.11208 0.06500
H 	H 	0.57122 0.76064 0.00069 0.10200
H 	H 	0.55523 0.75845 0.75118 0.01900
H 	H 	0.52398 0.72713 0.78065 0.01900
H 	H 	0.49366 0.77621 0.71973 0.06000
H 	H 	0.51875 0.80828 0.77657 0.06400
H 	H 	0.48719 0.73471 0.87864 0.05100
H 	H 	0.44314 0.74086 0.96901 0.05100
H 	H 	0.39732 0.77065 1.02913 0.09500
H 	H 	0.39113 0.81728 1.02204 0.09400
H 	H 	0.38513 0.85406 0.93041 0.03300
H 	H 	0.38997 0.89838 0.84036 0.03700
H 	H 	0.43351 0.89114 0.74372 0.03800
H 	H 	0.47269 0.83979 0.73699 0.04100
H 	H 	0.58838 0.71174 0.78347 0.09700
C 	C 	0.33356 0.29353 0.86601 -0.12400
O 	O 	0.34063 0.25665 0.84548 -0.19200
C 	C 	0.35983 0.23692 0.89675 0.20500
C 	C 	0.35173 0.23809 0.97195 -0.19300
C 	C 	0.37078 0.21678 0.02110 0.19800
O 	O 	0.36323 0.21452 0.09613 -0.18300
C 	C 	0.33621 0.23670 0.12785 -0.11400
C 	C 	0.39831 0.19534 0.99404 -0.18700
C 	C 	0.40641 0.19332 0.91942 0.21500
O 	O 	0.43529 0.17162 0.89843 -0.23200
C 	C 	0.43965 0.16166 0.82184 0.06800
C 	C 	0.47272 0.13833 0.81329 -0.11800
C 	C 	0.50547 0.16022 0.82884 0.02800
C 	C 	0.52276 0.15809 0.89766 -0.03000
C 	C 	0.55106 0.17966 0.91820 -0.07000
C 	C 	0.56290 0.20470 0.87144 0.08800
C 	C 	0.58966 0.23139 0.90373 -0.26700
C 	C 	0.54720 0.20602 0.79941 -0.02400
C 	C 	0.55917 0.22931 0.74828 -0.02600
C 	C 	0.54438 0.22931 0.67703 -0.02800
C 	C 	0.51650 0.20728 0.65603 -0.02400
C 	C 	0.50330 0.18485 0.70592 -0.04100
C 	C 	0.51842 0.18340 0.77784 0.00500
C 	C 	0.38628 0.21373 0.87053 -0.19800
H 	H 	0.34439 0.30971 0.82358 0.08300
H 	H 	0.34634 0.30294 0.91968 0.07100
H 	H 	0.33031 0.25492 -0.00922 0.09200
H 	H 	0.31155 0.23364 0.09401 0.06100
H 	H 	0.34423 0.26505 0.13127 0.07400
H 	H 	0.41352 0.17951 0.03166 0.10000
H 	H 	0.41677 0.14606 0.79945 0.01700
H 	H 	0.44209 0.18560 0.78997 0.01900
H 	H 	0.47314 0.12431 0.75760 0.05100
H 	H 	0.47167 0.11675 0.85203 0.06300
H 	H 	0.51377 0.14013 0.93689 0.04300
H 	H 	0.56289 0.17771 0.97282 0.05100
H 	H 	0.57838 0.25880 0.90142 0.10400
H 	H 	0.59547 0.22743 0.96309 0.09500
H 	H 	0.58029 0.24743 0.76185 0.05800
H 	H 	0.55451 0.24662 0.63799 0.04400
H 	H 	0.50491 0.20762 0.60081 0.03600
H 	H 	0.48144 0.16854 0.68674 0.03700
H 	H 	0.39122 0.21264 0.81225 0.09200
C 	C 	0.77447 0.68933 0.34512 -0.11900
O 	O 	0.75594 0.65690 0.32760 -0.18500
C 	C 	0.75048 0.63386 0.38404 0.21200
C 	C 	0.75357 0.64451 0.45966 -0.20200
C 	C 	0.74817 0.61998 0.51342 0.21100
O 	O 	0.75356 0.62802 0.58971 -0.19500
C 	C 	0.76409 0.66332 0.61312 -0.10900
C 	C 	0.73687 0.58573 0.49080 -0.19900
C 	C 	0.73148 0.57525 0.41612 0.21700
O 	O 	0.71623 0.54176 0.39889 -0.23700
C 	C 	0.70727 0.53169 0.32341 0.06800
C 	C 	0.68573 0.49762 0.31894 -0.11800
C 	C 	0.70181 0.46588 0.35701 0.03000
C 	C 	0.73748 0.46517 0.37839 -0.02700
C 	C 	0.75171 0.43770 0.41797 -0.07200
C 	C 	0.73129 0.40939 0.43679 0.09200
C 	C 	0.74827 0.38156 0.48417 -0.26600
C 	C 	0.69578 0.40797 0.41179 -0.02000
C 	C 	0.67456 0.37902 0.42607 -0.01500
C 	C 	0.63950 0.37833 0.40284 -0.03000
C 	C 	0.62499 0.40584 0.36386 -0.02000
C 	C 	0.64541 0.43444 0.34786 -0.04100
C 	C 	0.68095 0.43635 0.37176 0.00700
C 	C 	0.73963 0.59921 0.36291 -0.20400
H 	H 	0.79020 0.69458 0.29700 0.08000
H 	H 	0.79380 0.68742 0.39193 0.07100
H 	H 	0.75971 0.67179 0.47644 0.09600
H 	H 	0.74276 0.68266 0.60028 0.07200
H 	H 	0.78835 0.67022 0.58603 0.06900
H 	H 	0.73128 0.56730 0.53207 0.10000
H 	H 	0.69068 0.55287 0.29925 0.01500
H 	H 	0.73118 0.52762 0.29089 0.01700
H 	H 	0.67973 0.48943 0.26001 0.05300
H 	H 	0.66080 0.50539 0.34545 0.06100
H 	H 	0.75486 0.48610 0.36564 0.04800
H 	H 	0.77912 0.43873 0.43455 0.04700
H 	H 	0.77266 0.39230 0.51178 0.09200
H 	H 	0.73092 0.37588 0.52942 0.09700
H 	H 	0.68470 0.35663 0.45505 0.04600
H 	H 	0.62348 0.35629 0.41502 0.04600
H 	H 	0.59773 0.40501 0.34581 0.03400
H 	H 	0.63290 0.45479 0.31641 0.03800
H 	H 	0.73689 0.59175 0.30459 0.09500
C 	C 	0.34223 0.77479 0.33058 -0.06800
O 	O 	0.36391 0.74323 0.32792 -0.19300
C 	C 	0.38969 0.73986 0.38445 0.21100
C 	C 	0.38368 0.75020 0.45879 -0.19800
C 	C 	0.40929 0.74404 0.51487 0.20300
O 	O 	0.40461 0.75313 0.59085 -0.19400
C 	C 	0.37350 0.77262 0.61016 -0.06200
C 	C 	0.44069 0.72705 0.49475 -0.19300
C 	C 	0.44701 0.71603 0.42114 0.21400
O 	O 	0.47888 0.69796 0.40669 -0.23400
C 	C 	0.48735 0.68905 0.33152 0.06700
C 	C 	0.52213 0.66827 0.32860 -0.11800
C 	C 	0.55403 0.68666 0.36585 0.02900
C 	C 	0.55278 0.72304 0.38992 -0.02700
C 	C 	0.58109 0.73934 0.42756 -0.07400
C 	C 	0.61199 0.72029 0.44224 0.09300
C 	C 	0.64095 0.73947 0.48732 -0.26900
C 	C 	0.61475 0.68395 0.41622 -0.02100
C 	C 	0.64564 0.66383 0.42855 -0.01400
C 	C 	0.64803 0.62817 0.40266 -0.03200
C 	C 	0.62020 0.61187 0.36340 -0.01800
C 	C 	0.58940 0.63104 0.35046 -0.04200
C 	C 	0.58578 0.66715 0.37710 0.00800
C 	C 	0.42110 0.72259 0.36622 -0.20100
H 	H 	0.34457 0.78745 0.27760 0.06300
H 	H 	0.35047 0.79502 0.37500 0.05400
H 	H 	0.35849 0.76155 0.47231 0.08600
H 	H 	0.35005 0.75674 0.59269 0.04000
H 	H 	0.37245 0.79811 0.58240 0.05900
H 	H 	0.46040 0.72194 0.53714 0.10100
H 	H 	0.46704 0.67135 0.30432 0.01600
H 	H 	0.48885 0.71345 0.30041 0.01700
H 	H 	0.52777 0.66116 0.26983 0.05400
H 	H 	0.51785 0.64315 0.35572 0.06300
H 	H 	0.52982 0.73946 0.38046 0.04800
H 	H 	0.57869 0.76729 0.44590 0.04700
H 	H 	0.63028 0.76414 0.51616 0.09600
H 	H 	0.65105 0.72287 0.53196 0.09900
H 	H 	0.66828 0.67526 0.45795 0.04400
H 	H 	0.67163 0.61310 0.41300 0.04700
H 	H 	0.62250 0.58420 0.34287 0.03400
H 	H 	0.56869 0.61714 0.31915 0.03800
H 	H 	0.42470 0.71435 0.30883 0.09300
C 	C 	0.25305 0.34171 0.33661 -0.06300
O 	O 	0.28395 0.36259 0.34862 -0.19500
C 	C 	0.28419 0.38861 0.40800 0.21200
C 	C 	0.27176 0.38183 0.47731 -0.20100
C 	C 	0.27255 0.40850 0.53609 0.20700
O 	O 	0.25992 0.40348 0.60680 -0.19000
C 	C 	0.24076 0.37169 0.61476 -0.06700
C 	C 	0.28697 0.44161 0.52425 -0.19300
C 	C 	0.30060 0.44843 0.45607 0.21600
O 	O 	0.31475 0.48242 0.44898 -0.23300
C 	C 	0.33109 0.48892 0.38161 0.06700
C 	C 	0.34495 0.52705 0.38598 -0.11800
C 	C 	0.31783 0.55695 0.39816 0.02800
C 	C 	0.28187 0.55010 0.38899 -0.02600
C 	C 	0.25703 0.57659 0.40442 -0.07300
C 	C 	0.26683 0.61093 0.43075 0.09300
C 	C 	0.23809 0.63685 0.45406 -0.27000
C 	C 	0.30283 0.61925 0.43843 -0.02300
C 	C 	0.31409 0.65356 0.46481 -0.01300
C 	C 	0.34944 0.66142 0.47173 -0.02900
C 	C 	0.37434 0.63577 0.45093 -0.01800
C 	C 	0.36411 0.60162 0.42510 -0.04100
C 	C 	0.32843 0.59236 0.42002 0.00700
C 	C 	0.29923 0.42142 0.39826 -0.20400
H 	H 	0.24320 0.34424 0.27902 0.06400
H 	H 	0.23145 0.35101 0.37285 0.05800
H 	H 	0.26218 0.35552 0.48461 0.09100
H 	H 	0.25757 0.34771 0.60311 0.05300
H 	H 	0.21758 0.37081 0.57598 0.06200
H 	H 	0.28764 0.46234 0.56870 0.10400
H 	H 	0.35358 0.47012 0.37332 0.01600
H 	H 	0.31259 0.48504 0.33327 0.01600
H 	H 	0.35864 0.53121 0.33445 0.05300
H 	H 	0.36450 0.52862 0.43283 0.06400
H 	H 	0.27221 0.52406 0.37062 0.04800
H 	H 	0.22967 0.56985 0.39725 0.05200
H 	H 	0.21456 0.62190 0.46737 0.10000
H 	H 	0.24550 0.65214 0.50648 0.08800
H 	H 	0.29601 0.67479 0.48058 0.03900
H 	H 	0.35746 0.68760 0.49338 0.04600
H 	H 	0.40175 0.64234 0.45516 0.04100
H 	H 	0.38453 0.58277 0.40916 0.03900
H 	H 	0.30931 0.42540 0.34478 0.09400
C 	C 	0.83414 0.79329 0.36828 -0.12500
O 	O 	0.84139 0.75662 0.34641 -0.19400
C 	C 	0.85979 0.73628 0.39777 0.20600
C 	C 	0.85085 0.73670 0.47245 -0.19800
C 	C 	0.86941 0.71490 0.52146 0.20300
O 	O 	0.86123 0.71201 0.59595 -0.18400
C 	C 	0.83445 0.73444 0.62781 -0.11500
C 	C 	0.89717 0.69366 0.49480 -0.19200
C 	C 	0.90599 0.69235 0.42063 0.21700
O 	O 	0.93501 0.67081 0.39985 -0.23300
C 	C 	0.93996 0.66183 0.32308 0.06800
C 	C 	0.97297 0.63847 0.31430 -0.11900
C 	C 	0.00575 0.66032 0.32964 0.02800
C 	C 	0.02308 0.65822 0.39842 -0.03100
C 	C 	0.05149 0.67966 0.41871 -0.07000
C 	C 	0.06344 0.70455 0.37173 0.08800
C 	C 	0.09023 0.73124 0.40389 -0.26700
C 	C 	0.04768 0.70585 0.29973 -0.02400
C 	C 	0.05975 0.72898 0.24837 -0.02700
C 	C 	0.04483 0.72903 0.17724 -0.02800
C 	C 	0.01673 0.70722 0.15659 -0.02400
C 	C 	0.00348 0.68494 0.20667 -0.04100
C 	C 	0.01874 0.68340 0.27846 0.00500
C 	C 	0.88639 0.71327 0.37188 -0.20000
H 	H 	0.84506 0.81006 0.32698 0.08200
H 	H 	0.84663 0.80215 0.42260 0.07200
H 	H 	0.82919 0.75328 0.49096 0.09400
H 	H 	0.80974 0.73161 0.59408 0.06100
H 	H 	0.84271 0.76272 0.63114 0.07400
H 	H 	0.91201 0.67749 0.53240 0.10200
H 	H 	0.91714 0.64662 0.29906 0.01700
H 	H 	0.94279 0.68623 0.29278 0.01900
H 	H 	0.97329 0.62452 0.25853 0.05100
H 	H 	0.97195 0.61684 0.35294 0.06400
H 	H 	1.01402 0.64039 0.43782 0.04300
H 	H 	0.06333 0.67775 0.47334 0.05100
H 	H 	0.07897 0.75865 0.40145 0.10400
H 	H 	0.09602 0.72736 0.46329 0.09500
H 	H 	0.08104 0.74692 0.26168 0.05800
H 	H 	0.05501 0.74622 0.13802 0.04400
H 	H 	0.00502 0.70763 0.10147 0.03500
H 	H 	-0.01856 0.66882 0.18778 0.03700
H 	H 	0.89184 0.71275 0.31391 0.09300
C 	C 	0.15307 0.87380 0.39062 -0.06800
O 	O 	0.17998 0.89321 0.35911 -0.20000
C 	C 	0.21374 0.89451 0.39314 0.21300
C 	C 	0.22173 0.88391 0.46488 -0.20500
C 	C 	0.25622 0.88585 0.49468 0.21100
O 	O 	0.26663 0.87429 0.56442 -0.19500
C 	C 	0.24041 0.86376 0.61213 -0.06500
C 	C 	0.28215 0.89959 0.45310 -0.19600
C 	C 	0.27478 0.91116 0.38267 0.22300
O 	O 	0.30241 0.92695 0.34802 -0.23300
C 	C 	0.29885 0.93523 0.27237 0.07000
C 	C 	0.32472 0.96445 0.25848 -0.11900
C 	C 	0.31628 -0.00122 0.30409 0.03100
C 	C 	0.33801 0.00819 0.36591 -0.03300
C 	C 	0.33137 0.03884 0.41100 -0.06500
C 	C 	0.30183 0.06043 0.39814 0.07800
C 	C 	0.29786 0.09529 0.44532 -0.25500
C 	C 	0.27787 0.04990 0.33932 -0.02100
C 	C 	0.24581 0.06828 0.32865 -0.04000
C 	C 	0.22405 0.05990 0.26702 -0.03600
C 	C 	0.23365 0.03305 0.21494 -0.02100
C 	C 	0.26436 0.01335 0.22575 -0.04100
C 	C 	0.28630 0.02036 0.28921 0.00500
C 	C 	0.24035 0.90792 0.35275 -0.20200
H 	H 	0.12833 0.87844 0.35884 0.06800
H 	H 	0.14856 0.88403 0.44840 0.05800
H 	H 	0.20139 0.87431 0.49719 0.09500
H 	H 	0.22467 0.84171 0.58484 0.05300
H 	H 	0.22333 0.88701 0.62827 0.06100
H 	H 	0.30856 0.90150 0.47629 0.10500
H 	H 	0.30449 0.91087 0.23637 0.01900
H 	H 	0.27252 0.94529 0.25770 0.01600
H 	H 	0.32455 0.96935 0.19891 0.05100
H 	H 	0.35152 0.95454 0.27257 0.06200
H 	H 	0.36051 0.99168 0.37942 0.04300
H 	H 	0.34956 0.04565 0.45661 0.04800
H 	H 	0.27410 0.09420 0.47826 0.09700
H 	H 	0.32043 0.09931 0.48505 0.09400
H 	H 	0.23698 0.08890 0.36821 0.02800
H 	H 	0.19970 0.07447 0.25951 0.03500
H 	H 	0.21701 0.02714 0.16633 0.03700
H 	H 	0.27054 -0.00727 0.18370 0.03800
H 	H 	0.23307 0.91576 0.29838 0.09700
C 	C 	0.26841 0.18940 0.83436 -0.11900
O 	O 	0.24766 0.15811 0.82229 -0.18500
C 	C 	0.24638 0.13435 0.87880 0.21300
C 	C 	0.25311 0.14454 -0.04617 -0.20300
C 	C 	0.25020 0.11970 0.00806 0.21100
O 	O 	0.25793 0.12765 0.08369 -0.19500
C 	C 	0.26633 0.16362 0.10698 -0.10700
C 	C 	0.23847 0.08538 -0.01322 -0.20000
C 	C 	0.22983 0.07528 0.91300 0.21800
O 	O 	0.21417 0.04178 0.89777 -0.23600
C 	C 	0.20472 0.03102 0.82278 0.06800
C 	C 	0.18387 0.99650 0.81947 -0.11800
C 	C 	0.20063 0.96522 0.85788 0.03000
C 	C 	0.23636 0.96521 0.87878 -0.02600
C 	C 	0.25123 0.93803 0.91836 -0.07200
C 	C 	0.23138 0.90941 0.93786 0.09200
C 	C 	0.24905 0.88183 0.98490 -0.26600
C 	C 	0.19576 0.90743 0.91379 -0.01900
C 	C 	0.17500 0.87839 0.92955 -0.01500
C 	C 	0.13983 0.87715 0.90731 -0.03000
C 	C 	0.12482 0.90408 0.86738 -0.02000
C 	C 	0.14479 0.93276 0.84989 -0.04100
C 	C 	0.18034 0.93538 0.87337 0.00700
C 	C 	0.23505 0.09976 0.85899 -0.20500
H 	H 	0.28229 0.19307 0.78287 0.08200
H 	H 	0.28936 0.18712 0.87781 0.07200
H 	H 	0.25981 0.17178 -0.03015 0.09500
H 	H 	0.24382 0.18158 0.09421 0.07100
H 	H 	0.28995 0.17207 0.07951 0.06800
H 	H 	0.23501 0.06665 0.02865 0.10000
H 	H 	0.18736 0.05161 0.79871 0.01500
H 	H 	0.22840 0.02735 0.78940 0.01700
H 	H 	0.17793 0.98790 0.76069 0.05300
H 	H 	0.15885 1.00385 0.84597 0.06100
H 	H 	0.25329 -0.01356 0.86551 0.04800
H 	H 	0.27867 0.93953 0.93438 0.04700
H 	H 	0.27367 0.89278 1.01116 0.09200
H 	H 	0.23222 0.87623 1.03109 0.09700
H 	H 	0.18555 0.85636 0.95910 0.04600
H 	H 	0.12413 0.85513 0.92096 0.04600
H 	H 	0.09751 0.90277 0.84992 0.03400
H 	H 	0.13191 0.95260 0.81768 0.03800
H 	H 	0.22926 0.09299 0.80122 0.09500
C 	C 	0.84126 0.27545 0.83194 -0.06800
O 	O 	0.86287 0.24387 0.82876 -0.19300
C 	C 	0.88855 0.24002 0.88528 0.21300
C 	C 	0.88288 0.25059 -0.04030 -0.20100
C 	C 	0.90845 0.24388 0.01552 0.20500
O 	O 	0.90413 0.25302 0.09158 -0.19400
C 	C 	0.87359 0.27331 0.11151 -0.06200
C 	C 	0.93947 0.22623 -0.00492 -0.19600
C 	C 	0.94544 0.21505 0.92143 0.21600
O 	O 	0.97710 0.19669 0.90650 -0.23400
C 	C 	0.98489 0.18705 0.83124 0.06700
C 	C 	0.02007 0.16706 0.82792 -0.11800
C 	C 	0.05181 0.18681 0.86253 0.02900
C 	C 	0.04987 0.22352 0.88381 -0.02700
C 	C 	0.07796 0.24105 0.91971 -0.07300
C 	C 	0.10934 0.22297 0.93521 0.09400
C 	C 	0.13769 0.24309 0.98038 -0.26900
C 	C 	0.11286 0.18642 0.91128 -0.02100
C 	C 	0.14430 0.16730 0.92407 -0.01500
C 	C 	0.14733 0.13132 0.90114 -0.03200
C 	C 	0.11966 0.11370 0.86409 -0.01800
C 	C 	0.08834 0.13188 0.85048 -0.04100
C 	C 	0.08407 0.16830 0.87428 0.00800
C 	C 	0.91954 0.22201 0.86681 -0.20200
H 	H 	0.84357 0.28829 0.77913 0.06300
H 	H 	0.84954 0.29555 0.87655 0.05400
H 	H 	0.85797 0.26249 -0.02640 0.08600
H 	H 	0.84969 0.25812 0.09423 0.03900
H 	H 	0.87314 0.29890 0.08407 0.05900
H 	H 	0.95916 0.22075 0.03726 0.10200
H 	H 	0.96462 0.16873 0.80596 0.01600
H 	H 	0.98557 0.21103 0.79864 0.01600
H 	H 	0.02523 0.15916 0.76924 0.05400
H 	H 	0.01672 0.14234 0.85706 0.06300
H 	H 	1.02649 0.23921 0.87379 0.04800
H 	H 	0.07494 0.26912 0.93645 0.04700
H 	H 	0.12660 0.26793 1.00772 0.09500
H 	H 	0.14750 0.22697 1.02604 0.10000
H 	H 	0.16688 0.17978 0.95169 0.04400
H 	H 	0.17129 0.11701 0.91231 0.04700
H 	H 	0.12246 0.08576 0.84588 0.03400
H 	H 	0.06775 0.11695 0.82107 0.03800
H 	H 	0.92286 0.21355 0.80943 0.09400
C 	C 	0.75334 0.84095 0.83561 -0.06300
O 	O 	0.78361 0.86264 0.84847 -0.19600
C 	C 	0.78308 0.88840 0.90818 0.21500
C 	C 	0.77017 0.88111 -0.02331 -0.20400
C 	C 	0.77068 0.90729 0.03635 0.20900
O 	O 	0.75785 0.90149 0.10655 -0.19000
C 	C 	0.73917 0.86923 0.11298 -0.06600
C 	C 	0.78514 0.94059 0.02597 -0.19400
C 	C 	0.79908 0.94799 0.95836 0.21800
O 	O 	0.81326 0.98208 0.95245 -0.23300
C 	C 	0.83016 0.98884 0.88581 0.06800
C 	C 	0.84412 0.02693 0.89100 -0.11800
C 	C 	0.81700 0.05694 0.90146 0.02800
C 	C 	0.78104 0.05014 0.89192 -0.02700
C 	C 	0.75623 0.07679 0.90613 -0.07300
C 	C 	0.76603 0.11124 0.93175 0.09300
C 	C 	0.73732 0.13730 0.95454 -0.27000
C 	C 	0.80204 0.11950 0.93959 -0.02300
C 	C 	0.81332 0.15391 0.96517 -0.01300
C 	C 	0.84868 0.16173 0.97213 -0.02900
C 	C 	0.87357 0.13591 0.95227 -0.01800
C 	C 	0.86332 0.10162 0.92745 -0.04100
C 	C 	0.82762 0.09245 0.92227 0.00700
C 	C 	0.79808 0.92134 0.89982 -0.20600
H 	H 	0.74505 0.84163 0.77661 0.06500
H 	H 	0.73064 0.85089 0.86809 0.06000
H 	H 	0.76049 0.85473 -0.01732 0.09300
H 	H 	0.75629 0.84563 0.09992 0.05300
H 	H 	0.71588 0.86848 0.07452 0.06500
H 	H 	0.78565 0.96097 0.07111 0.10400
H 	H 	0.85267 0.97004 0.87803 0.01600
H 	H 	0.81202 0.98516 0.83681 0.01600
H 	H 	0.85847 0.03097 0.84024 0.05300
H 	H 	0.86312 0.02856 0.93884 0.06400
H 	H 	0.77138 1.02401 0.87427 0.04800
H 	H 	0.72886 0.07010 0.89877 0.05200
H 	H 	0.71373 0.12243 0.96791 0.10000
H 	H 	0.74470 0.15270 1.00684 0.08900
H 	H 	0.79525 0.17526 0.98027 0.04000
H 	H 	0.85671 0.18800 0.99313 0.04700
H 	H 	0.90099 0.14244 0.95650 0.04100
H 	H 	0.88373 0.08261 0.91236 0.03900
H 	H 	0.80848 0.92566 0.84679 0.09400
O 	O 	0.22513 0.32868 0.98062 -0.46200
O 	O 	0.24258 0.35979 0.88715 -0.45500
Co	Co	0.23542 0.32951 0.80517 1.20100
C 	C 	0.22912 0.37003 0.69198 0.26500
C 	C 	0.29494 0.29993 0.86810 0.41900
Co	Co	0.19175 0.26487 0.79381 1.20300
O 	O 	0.25344 0.36343 0.74829 -0.37400
O 	O 	0.19800 0.37054 0.70453 -0.30400
O 	O 	0.27864 0.30953 0.81074 -0.47300
O 	O 	0.27986 0.29588 0.92778 -0.47200
Co	Co	0.23521 0.28355 0.94512 1.27300
O 	O 	0.19243 0.27029 0.97149 -0.47000
O 	O 	0.16709 0.24671 0.86621 -0.46400
O 	O 	0.16716 0.23530 0.72520 -0.38100
O 	O 	0.20667 0.25718 0.65176 -0.32200
O 	O 	0.22543 0.23080 0.79669 -0.46000
O 	O 	0.24682 0.23782 0.91306 -0.47000
O 	O 	0.21607 0.29571 0.85690 -0.72300
C 	C 	0.23138 0.35803 0.95233 0.41800
C 	C 	0.16768 0.25380 0.93597 0.43000
C 	C 	0.18199 0.23748 0.65690 0.28900
C 	C 	0.24530 0.22135 0.84938 0.41300
O 	O 	0.69571 0.16243 0.87254 -0.47000
O 	O 	0.75043 0.18299 0.87415 -0.46600
Co	Co	0.74554 0.22751 0.83998 1.20000
C 	C 	0.80368 0.26621 0.83980 0.27600
C 	C 	0.73391 0.18641 0.70911 0.41000
Co	Co	0.68006 0.27030 0.82380 1.20300
O 	O 	0.79389 0.23099 0.84575 -0.37800
O 	O 	0.78127 0.28972 0.83955 -0.33300
O 	O 	0.74899 0.21248 0.74429 -0.47800
O 	O 	0.70862 0.17026 0.73454 -0.45000
Co	Co	0.67492 0.18588 0.79889 1.27200
O 	O 	0.63967 0.19879 0.85951 -0.46200
O 	O 	0.63584 0.25765 0.84397 -0.46100
O 	O 	0.66361 0.31669 0.81476 -0.37800
O 	O 	0.66454 0.31840 0.93960 -0.30700
O 	O 	0.67270 0.26178 0.72552 -0.46700
O 	O 	0.65202 0.20656 0.72275 -0.47300
O 	O 	0.69803 0.22590 0.83515 -0.72100
C 	C 	0.72737 0.16222 0.89598 0.42900
C 	C 	0.62383 0.22887 0.86635 0.42600
C 	C 	0.66069 0.33472 0.88397 0.27400
C 	C 	0.65703 0.23540 0.69269 0.41700
O 	O 	0.19632 0.66222 0.37268 -0.46900
O 	O 	0.25110 0.68261 0.37382 -0.46700
Co	Co	0.24628 0.72723 0.33995 1.20000
C 	C 	0.30460 0.76565 0.33851 0.27600
C 	C 	0.23442 0.68641 0.20898 0.40900
Co	Co	0.18072 0.77013 0.32424 1.20200
O 	O 	0.29468 0.73054 0.34530 -0.37900
O 	O 	0.28225 0.78921 0.33769 -0.33200
O 	O 	0.24947 0.71235 0.24412 -0.47900
O 	O 	0.20911 0.67010 0.23471 -0.44900
Co	Co	0.17555 0.68575 0.29916 1.27200
O 	O 	0.14031 0.69863 0.35992 -0.46200
O 	O 	0.13647 0.75747 0.34426 -0.46100
O 	O 	0.16426 0.81652 0.31527 -0.37800
O 	O 	0.16467 0.81805 0.44008 -0.30700
O 	O 	0.17339 0.76166 0.22591 -0.46700
O 	O 	0.15258 0.70649 0.22317 -0.47300
O 	O 	0.19871 0.72571 0.33550 -0.72000
C 	C 	0.22812 0.66194 0.39579 0.42900
C 	C 	0.12444 0.72871 0.36663 0.42600
C 	C 	0.16098 0.83443 0.38450 0.27400
C 	C 	0.15764 0.73535 0.19309 0.41600
O 	O 	0.83011 0.28662 0.47912 -0.46500
O 	O 	0.86163 0.27484 0.37752 -0.46000
Co	Co	0.82992 0.27104 0.30105 1.19900
C 	C 	0.87273 0.28110 0.19335 0.25300
C 	C 	0.80848 0.21175 0.37361 0.41400
Co	Co	0.76511 0.31375 0.29765 1.20400
O 	O 	0.86484 0.25419 0.23893 -0.37500
O 	O 	0.87515 0.31181 0.21952 -0.28000
O 	O 	0.82074 0.22529 0.31799 -0.47200
O 	O 	0.79616 0.23008 0.42837 -0.46900
Co	Co	0.78521 0.27706 0.44797 1.27300
O 	O 	0.77338 0.32308 0.47528 -0.47100
O 	O 	0.75046 0.34468 0.37150 -0.46400
O 	O 	0.73657 0.33790 0.23333 -0.38700
O 	O 	0.78899 0.34724 0.18624 -0.32000
O 	O 	0.72988 0.28363 0.30760 -0.46900
O 	O 	0.73970 0.26634 0.42254 -0.46600
O 	O 	0.79494 0.28971 0.35648 -0.73000
C 	C 	0.85908 0.28365 0.44636 0.42600
C 	C 	0.75782 0.34749 0.44060 0.43100
C 	C 	0.75723 0.34966 0.17898 0.26600
C 	C 	0.72123 0.26723 0.36273 0.41100
O 	O 	0.72519 0.82836 0.48049 -0.46300
O 	O 	0.74197 0.85806 0.38448 -0.45400
Co	Co	0.73536 0.82627 0.30459 1.20200
C 	C 	0.72794 0.86623 0.19010 0.26600
C 	C 	0.79551 0.79929 0.36985 0.42000
Co	Co	0.69390 0.75967 0.29827 1.20300
O 	O 	0.75275 0.85962 0.24545 -0.37400
O 	O 	0.69691 0.86572 0.20322 -0.29600
O 	O 	0.77896 0.80723 0.31150 -0.47600
O 	O 	0.78059 0.79633 0.43007 -0.47500
Co	Co	0.73641 0.78303 0.44841 1.27200
O 	O 	0.69417 0.76911 0.47605 -0.47100
O 	O 	0.67062 0.74152 0.37290 -0.46300
O 	O 	0.67066 0.72734 0.23256 -0.38100
O 	O 	0.67843 0.77067 0.15461 -0.31900
O 	O 	0.72958 0.72783 0.30293 -0.46800
O 	O 	0.74927 0.73713 0.42013 -0.47200
O 	O 	0.71674 0.79295 0.35894 -0.72000
C 	C 	0.73118 0.85725 0.45019 0.41800
C 	C 	0.67048 0.75049 0.44200 0.43000
C 	C 	0.66883 0.74039 0.16252 0.27900
C 	C 	0.74933 0.71996 0.35718 0.41200
O 	O 	0.36130 0.18420 0.36212 -0.45600
O 	O 	0.34309 0.24204 0.36637 -0.45400
Co	Co	0.29689 0.24065 0.33648 1.23400
C 	C 	0.26134 0.30315 0.34592 0.26800
C 	C 	0.32879 0.22560 0.20354 0.40700
Co	Co	0.25892 0.16777 0.31796 1.21800
O 	O 	0.29554 0.29023 0.34196 -0.36700
O 	O 	0.23781 0.28266 0.35505 -0.26800
O 	O 	0.30533 0.24229 0.23948 -0.46100
O 	O 	0.34522 0.19905 0.22852 -0.45100
Co	Co	0.33115 0.16602 0.29035 1.25500
O 	O 	0.31985 0.12996 0.35072 -0.46600
O 	O 	0.26888 0.14733 0.40146 -0.48800
O 	O 	0.23448 0.20574 0.36245 -0.41100
O 	O 	0.18228 0.23171 0.33818 -0.20100
O 	O 	0.25385 0.18432 0.22992 -0.49700
O 	O 	0.30061 0.14903 0.21445 -0.48200
O 	O 	0.29805 0.19232 0.33443 -0.69600
C 	C 	0.36440 0.21715 0.38514 0.41700
C 	C 	0.29574 0.12662 0.39793 0.39300
C 	C 	0.19903 0.20398 0.34333 0.26200
C 	C 	0.27409 0.16617 0.18765 0.35500
O 	O 	0.86100 0.68344 0.86272 -0.45500
O 	O 	0.84318 0.74141 0.86489 -0.45300
Co	Co	0.79663 0.74003 0.83732 1.23300
C 	C 	0.76214 0.80310 0.85060 0.26800
C 	C 	0.82718 0.72354 0.70375 0.40800
Co	Co	0.75811 0.66751 0.82419 1.21800
O 	O 	0.79562 0.78948 0.83880 -0.36700
O 	O 	0.73981 0.78391 0.87187 -0.26900
O 	O 	0.80380 0.74032 0.73962 -0.46300
O 	O 	0.84367 0.69721 0.72927 -0.45200
Co	Co	0.82995 0.66493 0.79319 1.25400
O 	O 	0.81915 0.62945 0.85526 -0.46600
O 	O 	0.76865 0.64716 0.90756 -0.48700
O 	O 	0.73420 0.70571 0.86924 -0.41100
O 	O 	0.68396 0.73404 0.83863 -0.20100
O 	O 	0.75235 0.68390 0.73624 -0.50000
O 	O 	0.79835 0.64774 0.71962 -0.48500
O 	O 	0.79757 0.69180 0.83868 -0.69500
C 	C 	0.86452 0.71657 0.88404 0.41500
C 	C 	0.79533 0.62625 0.90313 0.39400
C 	C 	0.69912 0.70562 0.84649 0.26100
C 	C 	0.77199 0.66535 0.69350 0.35700
O 	O 	0.33101 0.78715 0.97871 -0.46400
O 	O 	0.36180 0.77422 0.87646 -0.46000
Co	Co	0.32984 0.77102 0.80048 1.20000
C 	C 	0.37217 0.78066 0.69185 0.25400
C 	C 	0.30849 0.71193 0.87339 0.41400
Co	Co	0.26530 0.81391 0.79832 1.20500
O 	O 	0.36432 0.75382 0.73762 -0.37600
O 	O 	0.37393 0.81150 0.71757 -0.28200
O 	O 	0.32003 0.72538 0.81699 -0.47300
O 	O 	0.29710 0.73037 0.92897 -0.46900
Co	Co	0.28603 0.77736 0.94845 1.27300
O 	O 	0.27415 0.82335 0.97578 -0.47000
O 	O 	0.25056 0.84471 0.87237 -0.46400
O 	O 	0.23653 0.83789 0.73419 -0.38700
O 	O 	0.28897 0.84767 0.68769 -0.31900
O 	O 	0.23039 0.78345 0.80851 -0.46900
O 	O 	0.24049 0.76647 0.92364 -0.46600
O 	O 	0.29539 0.79006 0.85678 -0.73000
C 	C 	0.35975 0.78371 0.94514 0.42500
C 	C 	0.25832 0.84767 0.94130 0.43000
C 	C 	0.25720 0.84987 0.68011 0.26600
C 	C 	0.22197 0.76704 0.86380 0.41000
