data_crystal

_cell_length_a 12.96860
_cell_length_b 29.19670
_cell_length_c 32.35460
_cell_angle_alpha 108.89790
_cell_angle_beta  89.40730
_cell_angle_gamma 88.41480

_symmetry_space_group_name_	'P 1'
_symmetry_space_group_name_H-M	'P 1'

loop_
_symmetry_equiv_pos_as_xyz
  x,y,z

loop_
_atom_site_label
_atom_site_type_symbol
_atom_site_fract_x
_atom_site_fract_y
_atom_site_fract_z
_atom_site_charge
Mn	Mn	0.90592 0.36878 0.13236 1.22100
Mn	Mn	0.16363 0.33976 0.10882 1.28400
Mn	Mn	0.48343 0.12246 0.86014 1.22000
Mn	Mn	0.23739 0.15211 0.90033 1.27100
Mn	Mn	0.21517 0.24273 0.00845 1.26600
C 	C 	-0.02841 0.32596 0.20306 0.09400
N 	N 	-0.00372 0.34290 0.17057 -0.25000
N 	N 	0.09574 0.33329 0.16289 -0.19800
N 	N 	0.13319 0.31205 0.19018 -0.05900
N 	N 	0.05697 0.30709 0.21589 -0.09500
N 	N 	0.30807 0.27551 0.13536 -0.11100
N 	N 	0.25471 0.28116 0.10282 -0.21000
N 	N 	0.27164 0.24402 0.06693 -0.20000
N 	N 	0.33648 0.21240 0.07503 -0.09800
C 	C 	0.35792 0.23252 0.11790 0.10300
C 	C 	0.26550 0.39417 0.01745 0.00800
N 	N 	0.22330 0.34700 0.05323 -0.43300
N 	N 	0.22616 0.38812 0.05177 -0.29600
N 	N 	0.06861 0.26382 0.03645 -0.22200
N 	N 	0.05548 0.29968 0.07356 -0.20100
N 	N 	0.95711 0.31105 0.08239 -0.21100
N 	N 	0.90060 0.28239 0.05213 -0.12000
N 	N 	0.25817 0.31329 0.01914 -0.22500
N 	N 	0.23399 0.36246 0.04227 0.39900
C 	C 	0.96872 0.25285 0.02299 0.10400
N 	N 	0.38112 0.15104 0.82835 -0.25900
N 	N 	0.28711 0.16303 0.84479 -0.20100
N 	N 	0.23040 0.17897 0.81832 -0.06100
N 	N 	0.28742 0.17842 0.78410 -0.09700
N 	N 	0.11532 0.23217 0.88620 -0.10600
N 	N 	0.15776 0.21473 0.91509 -0.21100
N 	N 	0.15650 0.24838 0.95349 -0.20000
N 	N 	0.11425 0.28927 0.95104 -0.10500
N 	N 	0.14886 0.15025 0.02368 -0.10000
N 	N 	0.17733 0.17155 -0.00511 -0.19800
N 	N 	0.18892 0.13876 0.95571 -0.19200
N 	N 	0.16839 0.09519 0.95763 -0.09600
N 	N 	0.35733 0.21698 0.97477 -0.22600
N 	N 	0.35562 0.18904 0.93288 -0.20400
N 	N 	0.44901 0.17919 0.91531 -0.21000
N 	N 	0.51682 0.19953 0.94463 -0.12000
Cl	Cl	0.05048 0.40377 0.11796 -0.76800
Cl	Cl	0.34561 0.08628 0.88130 -0.78300
C 	C 	0.38144 0.16097 0.79033 0.11600
C 	C 	0.08689 0.27821 0.90910 0.12300
C 	C 	0.14211 0.10260 -0.00001 0.10400
C 	C 	0.46189 0.22219 0.98187 0.13300
Mn	Mn	0.61873 0.88492 0.19080 1.21700
Mn	Mn	0.82716 0.81249 0.14064 1.27500
Mn	Mn	-0.07553 0.59713 0.85368 1.21100
Mn	Mn	0.73181 0.67171 0.91223 1.27500
Mn	Mn	0.78763 0.74032 0.02605 1.25700
C 	C 	0.63647 0.81234 0.24222 0.11400
N 	N 	0.66971 0.83049 0.21126 -0.25900
N 	N 	0.74841 0.80193 0.19140 -0.19800
N 	N 	0.76444 0.76773 0.20910 -0.06200
N 	N 	0.69628 0.77346 0.24138 -0.09500
N 	N 	0.89374 0.71724 0.13878 -0.11400
N 	N 	0.86199 0.74237 0.11412 -0.21600
N 	N 	0.84448 0.71399 0.07394 -0.19600
N 	N 	0.85972 0.66818 0.07243 -0.10500
C 	C 	0.89204 0.67118 0.11317 0.09900
C 	C 	0.97744 0.85926 0.05439 0.10000
N 	N 	0.89746 0.82330 0.09042 -0.20600
N 	N 	0.95656 0.86047 0.09529 -0.10000
N 	N 	0.66854 0.77888 0.07020 -0.22000
N 	N 	0.69343 0.80763 0.10973 -0.20200
N 	N 	0.61426 0.83518 0.13021 -0.20800
N 	N 	0.53242 0.82503 0.10630 -0.12000
N 	N 	0.88169 0.79970 0.04863 -0.19300
N 	N 	0.93070 0.82187 0.02470 -0.10200
C 	C 	0.56293 0.78956 0.06938 0.09500
N 	N 	0.85803 0.64883 0.83311 -0.25400
N 	N 	0.79176 0.68157 0.85788 -0.19700
N 	N 	0.74098 0.70304 0.83366 -0.06600
N 	N 	0.77161 0.68335 0.79230 -0.09600
N 	N 	0.67500 0.77234 0.91889 -0.10700
N 	N 	0.71082 0.74351 0.93990 -0.21200
N 	N 	0.73262 0.76878 0.98048 -0.19700
N 	N 	0.71070 0.81531 0.98741 -0.09600
N 	N 	0.63631 0.66277 0.03009 -0.10200
N 	N 	0.69271 0.68190 0.00552 -0.20200
N 	N 	0.67720 0.65787 0.96415 -0.20200
N 	N 	0.61660 0.62150 0.96034 -0.09500
N 	N 	0.90206 0.70056 0.97757 -0.21800
N 	N 	0.87051 0.67472 0.93778 -0.20500
N 	N 	-0.05479 0.64786 0.91311 -0.21800
N 	N 	0.03191 0.65607 0.93386 -0.12700
Cl	Cl	0.78518 0.89234 0.17206 -0.78800
Cl	Cl	0.76420 0.59102 0.87936 -0.78000
C 	C 	0.84221 0.64839 0.79198 0.09400
C 	C 	0.67506 0.81691 0.94865 0.10000
C 	C 	0.58856 0.62484 0.00121 0.10400
C 	C 	0.00737 0.68911 0.97305 0.13300
Mn	Mn	0.95174 0.63558 0.39605 1.24000
Mn	Mn	0.20275 0.65190 0.42626 1.27400
Mn	Mn	0.49641 0.85558 0.67927 1.21400
Mn	Mn	0.25155 0.83310 0.64162 1.27100
Mn	Mn	0.23665 0.74509 0.53225 1.26900
C 	C 	0.05237 0.66792 0.32197 0.11600
N 	N 	0.05413 0.65981 0.36082 -0.24600
N 	N 	0.15198 0.66230 0.37155 -0.20300
N 	N 	0.21013 0.66838 0.34016 -0.06400
N 	N 	0.14978 0.67241 0.30884 -0.09700
N 	N 	0.33986 0.71913 0.40500 -0.10900
N 	N 	0.29232 0.70930 0.43709 -0.21200
N 	N 	0.29948 0.74551 0.47410 -0.19700
N 	N 	0.35105 0.78074 0.46671 -0.09700
C 	C 	0.37580 0.76353 0.42346 0.10200
C 	C 	0.30580 0.60387 0.52265 0.10300
N 	N 	0.25192 0.63956 0.47984 -0.20400
N 	N 	0.27188 0.59587 0.48186 -0.10000
N 	N 	0.09447 0.72841 0.50137 -0.21800
N 	N 	0.08960 0.69515 0.46213 -0.20100
N 	N 	0.99386 0.68911 0.44919 -0.21000
N 	N 	0.93107 0.71871 0.47824 -0.11400
N 	N 	0.27397 0.67307 0.51686 -0.19800
N 	N 	0.30873 0.65185 0.54475 -0.09900
C 	C 	0.99212 0.74353 0.51099 0.11100
N 	N 	0.39168 0.83118 0.71246 -0.26100
N 	N 	0.29876 0.82087 0.69683 -0.20000
N 	N 	0.23934 0.81037 0.72572 -0.06300
N 	N 	0.29366 0.81299 0.76077 -0.09600
N 	N 	0.13043 0.75664 0.65643 -0.11000
N 	N 	0.16922 0.77384 0.62676 -0.21500
N 	N 	0.16998 0.74053 0.58792 -0.19600
N 	N 	0.13179 0.70015 0.59117 -0.10100
N 	N 	0.14179 0.83343 0.52267 -0.09600
N 	N 	0.19897 0.81596 0.54795 -0.19800
N 	N 	0.20303 0.84792 0.58757 -0.19500
N 	N 	0.14691 0.88718 0.58940 -0.10800
N 	N 	0.37658 0.76519 0.56572 -0.22500
N 	N 	0.37192 0.79227 0.60789 -0.20300
N 	N 	0.46445 0.79924 0.62478 -0.21100
N 	N 	0.53401 0.77762 0.59470 -0.11900
Cl	Cl	0.08714 0.59209 0.41239 -0.76500
Cl	Cl	0.35964 0.89559 0.65989 -0.79300
C 	C 	0.38873 0.82597 0.75238 0.11600
C 	C 	0.10758 0.71080 0.63397 0.11800
C 	C 	0.10993 0.87785 0.54864 0.10300
C 	C 	0.48194 0.75763 0.55734 0.11600
Mn	Mn	0.56869 0.11584 0.35581 1.23600
Mn	Mn	0.80209 0.15713 0.39805 1.27100
Mn	Mn	0.01602 0.36060 0.66173 1.21400
Mn	Mn	0.78103 0.33028 0.61692 1.27000
Mn	Mn	0.78964 0.25278 0.50317 1.26300
C 	C 	0.65318 0.16148 0.28783 0.11200
N 	N 	0.66257 0.14749 0.32375 -0.25100
N 	N 	0.74886 0.16631 0.34214 -0.20000
N 	N 	0.79069 0.19190 0.31976 -0.05900
N 	N 	0.73303 0.18950 0.28575 -0.09500
N 	N 	0.92705 0.23147 0.38315 -0.11300
N 	N 	0.87675 0.21999 0.41351 -0.21400
N 	N 	0.86238 0.25847 0.44855 -0.19800
N 	N 	0.89841 0.29715 0.44048 -0.10400
C 	C 	0.94107 0.27915 0.39948 0.12300
C 	C 	0.88341 0.11621 0.50199 0.11800
N 	N 	0.84772 0.14776 0.45331 -0.20500
N 	N 	0.86886 0.10541 0.45864 -0.10000
N 	N 	0.65774 0.22769 0.46446 -0.21500
N 	N 	0.67107 0.18992 0.42814 -0.20200
N 	N 	0.58255 0.17443 0.41016 -0.20600
N 	N 	0.50620 0.20204 0.43232 -0.11900
N 	N 	0.84755 0.18298 0.49095 -0.19600
N 	N 	0.86936 0.16437 0.52251 -0.10000
C 	C 	0.55068 0.23573 0.46577 0.10300
N 	N 	0.92011 0.32234 0.68492 -0.26100
N 	N 	0.82837 0.31069 0.66869 -0.19700
N 	N 	0.79237 0.27604 0.68237 -0.05900
N 	N 	0.86237 0.26399 0.70702 -0.09200
N 	N 	0.65056 0.24989 0.61786 -0.10800
N 	N 	0.70570 0.26950 0.59387 -0.21500
N 	N 	0.71232 0.24074 0.55330 -0.19800
N 	N 	0.66044 0.20099 0.54921 -0.09800
N 	N 	0.67608 0.34537 0.50156 -0.10000
N 	N 	0.73336 0.32284 0.52333 -0.19500
N 	N 	0.73810 0.35056 0.56480 -0.19900
N 	N 	0.68863 0.39202 0.57057 -0.10500
N 	N 	0.92323 0.27894 0.54082 -0.22100
N 	N 	0.91088 0.29824 0.58401 -0.20200
N 	N 	0.00038 0.30876 0.60310 -0.20900
N 	N 	0.07535 0.29685 0.57391 -0.11800
Cl	Cl	0.71409 0.08740 0.37896 -0.79000
Cl	Cl	0.87191 0.39799 0.64603 -0.79600
C 	C 	0.94259 0.29287 0.70785 0.08200
C 	C 	0.62167 0.20735 0.58968 0.09800
C 	C 	0.64877 0.38891 0.53184 0.11900
C 	C 	0.03045 0.28046 0.53471 0.10900
C 	C 	0.52124 0.23292 0.02285 -0.08500
C 	C 	0.57981 0.27605 1.03163 0.03200
C 	C 	0.53511 0.32651 1.03950 0.02200
C 	C 	0.49799 0.33254 0.99668 -0.17600
C 	C 	0.45769 0.34101 1.07731 -0.15100
C 	C 	0.68477 0.27139 1.02039 -0.10400
C 	C 	0.73297 0.22621 1.00407 0.08500
C 	C 	0.82019 0.21925 0.97188 -0.11400
C 	C 	0.92796 0.20925 -0.01267 -0.01400
N 	N 	-0.00518 0.19186 -0.05099 -0.19400
C 	C 	0.68359 0.18663 0.00850 -0.11800
C 	C 	0.58051 0.19040 0.02311 0.03900
C 	C 	0.53406 0.14321 0.02463 0.01800
C 	C 	0.50683 0.10911 -0.02077 -0.17900
C 	C 	0.60784 0.11607 0.04669 -0.16700
H 	H 	0.59711 0.35322 1.05079 0.00200
H 	H 	0.56071 0.32084 0.97143 0.05600
H 	H 	0.42978 0.31124 0.98380 0.06700
H 	H 	0.48006 0.37085 1.00133 0.06000
H 	H 	0.39916 0.31351 0.07195 0.04400
H 	H 	0.49722 0.34304 0.10814 0.03200
H 	H 	0.42196 0.37713 1.08122 0.05200
H 	H 	0.72583 0.30250 1.01838 0.03900
H 	H 	0.82449 0.25170 0.96151 0.04900
H 	H 	0.80056 0.18895 0.94205 0.03600
H 	H 	0.92252 0.18044 0.00142 0.03100
H 	H 	-0.02447 0.15677 0.93066 0.05600
H 	H 	-0.02459 0.21167 -0.07158 0.07200
H 	H 	0.72139 0.15168 -0.00353 0.04500
H 	H 	0.46260 0.15130 0.04436 0.03300
H 	H 	0.48900 0.07277 -0.01912 0.05600
H 	H 	0.57176 0.10472 0.95543 0.04100
H 	H 	0.43690 0.12299 -0.03263 0.06500
H 	H 	0.66502 0.09288 0.02273 0.05200
H 	H 	0.56500 0.09201 0.06045 0.05100
H 	H 	0.65055 0.14164 0.07351 0.06000
C 	C 	0.09474 0.70821 0.00149 -0.07800
C 	C 	0.14982 0.67657 0.02083 0.01700
C 	C 	0.12252 0.62429 0.01950 0.03200
C 	C 	0.12372 0.62003 0.06555 -0.17700
C 	C 	0.02691 0.59976 -0.00506 -0.19200
C 	C 	0.24655 0.69115 0.03943 -0.09300
C 	C 	0.29049 0.73413 0.03958 0.06300
C 	C 	0.39030 0.74998 0.06360 -0.11900
C 	C 	0.47374 0.76908 0.03863 0.00300
N 	N 	0.49707 0.73406 -0.00407 -0.18400
C 	C 	0.24065 0.76233 0.01819 -0.09300
C 	C 	0.15030 0.74750 -0.00564 0.03000
C 	C 	0.12440 0.76956 -0.04262 -0.00400
C 	C 	0.19326 0.81164 -0.04420 -0.16400
C 	C 	0.13297 0.73148 0.91129 -0.13400
H 	H 	0.18735 0.59986 0.00203 0.01400
H 	H 	0.07825 0.58915 0.06768 0.06800
H 	H 	0.20374 0.61267 0.07433 0.06100
H 	H 	0.09424 0.65434 0.08975 0.07200
H 	H 	0.04101 0.58782 0.95917 0.05200
H 	H 	0.01177 0.56550 1.00158 0.06600
H 	H 	0.95631 0.62287 0.00436 0.07200
H 	H 	0.29029 0.66808 0.05358 0.04600
H 	H 	0.42606 0.71970 0.07275 0.05000
H 	H 	0.36823 0.77873 0.09464 0.04700
H 	H 	0.44050 0.80142 0.03214 0.02600
H 	H 	0.48580 0.69888 -0.00434 0.08300
H 	H 	0.57116 0.73757 -0.01339 0.05700
H 	H 	0.27813 0.79444 0.01783 0.04700
H 	H 	0.04388 0.78409 0.96208 0.04100
H 	H 	0.16676 0.82718 -0.06959 0.05300
H 	H 	0.27479 0.79860 -0.05204 0.05400
H 	H 	0.19234 0.84155 -0.01329 0.05900
H 	H 	0.16626 0.74609 -0.11354 0.03800
H 	H 	0.05520 0.71968 0.89905 0.04700
H 	H 	0.18339 0.70012 0.91123 0.04800
C 	C 	0.54337 0.75271 0.51629 -0.05700
C 	C 	0.61160 0.71056 0.50354 0.00900
C 	C 	0.58179 0.65886 0.48022 0.03700
C 	C 	0.56329 0.63192 0.51293 -0.18200
C 	C 	0.49222 0.65519 0.44984 -0.18200
C 	C 	0.71291 0.71500 0.51860 -0.08700
C 	C 	0.75171 0.76019 0.53941 0.06100
C 	C 	0.84548 0.76450 0.56684 -0.11900
C 	C 	0.94050 0.78334 0.54913 -0.00200
N 	N 	0.00800 0.80581 0.58516 -0.18500
C 	C 	0.69663 0.80109 0.53774 -0.09100
C 	C 	0.59617 0.79711 0.52073 0.02400
C 	C 	0.54217 0.84396 0.51950 0.01800
C 	C 	0.49714 0.87458 0.56409 -0.16300
C 	C 	0.61357 0.87499 0.50170 -0.16500
H 	H 	0.64789 0.63968 0.45861 -0.00200
H 	H 	0.63496 0.62976 0.53078 0.05500
H 	H 	0.50312 0.65113 0.53734 0.07200
H 	H 	0.54068 0.59432 0.49537 0.05900
H 	H 	0.51038 0.67282 0.42508 0.05900
H 	H 	0.47494 0.61668 0.43255 0.04400
H 	H 	0.42529 0.67336 0.46973 0.05400
H 	H 	0.76042 0.68288 0.51575 0.03500
H 	H 	0.86701 0.72913 0.57022 0.05100
H 	H 	0.82319 0.78887 0.60015 0.03300
H 	H 	0.91243 0.81151 0.53553 0.03800
H 	H 	-0.00285 0.79023 0.60963 0.07200
H 	H 	-0.01920 0.84161 0.59975 0.06300
H 	H 	0.72958 0.83620 0.55208 0.03800
H 	H 	0.47798 0.83513 0.49695 0.03600
H 	H 	0.47001 0.91076 0.56335 0.06100
H 	H 	0.55537 0.87970 0.59003 0.02800
H 	H 	0.42904 0.85691 0.57209 0.06800
H 	H 	0.66685 0.89575 0.52711 0.05000
H 	H 	0.56683 0.90152 0.49114 0.05200
H 	H 	0.66040 0.85211 0.47326 0.06000
C 	C 	0.09490 0.29119 0.49941 -0.05400
C 	C 	0.13856 0.33918 0.51175 0.01600
C 	C 	0.08318 0.38705 0.53814 0.02600
C 	C 	-0.03427 0.38588 0.53837 -0.18700
C 	C 	0.12437 0.40851 0.58468 -0.14400
C 	C 	0.24283 0.34435 0.50086 -0.09100
C 	C 	0.30226 0.30545 0.47446 0.05700
C 	C 	0.42019 0.30618 0.47183 -0.11900
C 	C 	0.47645 0.27382 0.49626 0.00100
N 	N 	0.52239 0.30310 0.53667 -0.18000
C 	C 	0.25141 0.26404 0.45208 -0.08500
C 	C 	0.15637 0.25332 0.46831 0.01700
C 	C 	0.14773 0.20019 0.46307 0.02400
C 	C 	0.14022 0.16817 0.41489 -0.16800
C 	C 	0.24375 0.18525 0.48461 -0.17700
H 	H 	0.10174 0.41375 0.52146 0.01500
H 	H 	-0.06901 0.42241 0.54321 0.06900
H 	H 	-0.06152 0.36092 0.50751 0.07300
H 	H 	-0.06311 0.37417 0.56494 0.07600
H 	H 	0.20868 0.41384 0.58396 0.03900
H 	H 	0.08647 0.44450 0.60133 0.03800
H 	H 	1.10976 0.38493 0.60462 -0.02400
H 	H 	0.27877 0.37904 0.51360 0.04600
H 	H 	0.44478 0.34407 0.48541 0.06000
H 	H 	0.44268 0.29397 0.43661 0.05100
H 	H 	0.41569 0.25241 0.50559 0.02500
H 	H 	0.53268 0.28112 0.55616 0.07100
H 	H 	0.46511 0.32848 0.55320 0.07300
H 	H 	0.29799 0.23563 0.42929 0.04400
H 	H 	0.07634 0.19506 0.47943 0.01500
H 	H 	0.14469 0.12928 0.41193 0.04300
H 	H 	0.20293 0.17408 0.39384 0.05000
H 	H 	1.06551 0.17523 0.40158 0.04400
H 	H 	0.31393 0.18013 0.46347 0.05400
H 	H 	0.23644 0.15149 0.49119 0.05700
H 	H 	0.25854 0.21302 0.51659 0.06000
C 	C 	0.50851 0.59235 0.01039 -0.05500
C 	C 	0.51117 0.57755 0.04864 0.00800
C 	C 	0.59386 0.59146 0.08317 0.03800
C 	C 	0.69879 0.56963 0.06263 -0.18000
C 	C 	0.59280 0.64574 0.11006 -0.18000
C 	C 	0.45041 0.53894 0.05059 -0.08000
C 	C 	0.39749 0.51087 0.01450 0.03700
C 	C 	0.37766 0.45851 1.01011 -0.10200
C 	C 	0.27032 0.44843 1.02519 0.04100
N 	N 	0.19025 0.46367 1.00042 -0.17700
C 	C 	0.38893 0.52663 0.97836 -0.06700
C 	C 	0.43676 0.56887 0.97670 0.02000
C 	C 	0.41845 0.58354 0.93567 0.02900
C 	C 	0.47466 0.54773 0.89562 -0.17600
C 	C 	0.30395 0.58877 0.92592 -0.17400
H 	H 	0.57848 0.57338 0.10802 0.00800
H 	H 	0.68926 0.53673 0.03379 0.05800
H 	H 	0.74335 0.59540 0.05162 0.07400
H 	H 	0.74297 0.55723 0.08630 0.05200
H 	H 	0.52729 0.66579 0.10134 0.06500
H 	H 	0.58382 0.65075 0.14543 0.05800
H 	H 	0.66565 0.66283 0.10604 0.07400
H 	H 	0.45626 0.52559 0.07814 0.03700
H 	H 	0.43545 0.44683 0.03008 0.03300
H 	H 	0.39257 0.43524 0.97562 0.04400
H 	H 	0.25979 0.47036 1.06044 0.04000
H 	H 	0.19575 0.44187 0.96764 0.07300
H 	H 	0.11816 0.45800 0.01243 0.07500
H 	H 	0.34915 0.50402 0.95012 0.03800
H 	H 	0.44642 0.62021 0.94027 0.02100
H 	H 	0.47623 0.56291 0.86824 0.05400
H 	H 	0.43557 0.51254 0.88458 0.05200
H 	H 	0.55563 0.54080 0.90338 0.08000
H 	H 	0.26060 0.55588 0.92375 0.04700
H 	H 	0.29586 0.59615 0.89451 0.03900
H 	H 	0.26895 0.62059 0.95129 0.06400
C 	C 	0.56277 0.42224 0.52754 -0.05300
C 	C 	0.49120 0.44466 0.56357 0.01500
C 	C 	0.50798 0.45217 0.61259 0.02700
C 	C 	0.49078 0.40719 0.62626 -0.16100
C 	C 	0.60703 0.47902 0.63084 -0.17300
C 	C 	0.39982 0.46670 0.55516 -0.09000
C 	C 	0.38491 0.47508 0.51586 0.05900
C 	C 	0.30703 0.51348 0.51373 -0.12200
C 	C 	0.34672 0.56465 0.53943 0.00700
N 	N 	0.32350 0.57809 0.58626 -0.17900
C 	C 	0.45397 0.45456 0.48125 -0.08900
C 	C 	0.54403 0.42911 0.48633 0.01600
C 	C 	0.62117 0.41330 0.44789 0.02600
C 	C 	0.57889 0.37197 0.41011 -0.17500
C 	C 	0.65070 0.45596 0.43240 -0.17000
H 	H 	0.44561 0.47764 0.63148 0.00800
H 	H 	0.41800 0.39026 0.61233 0.04200
H 	H 	0.55467 0.37984 0.61662 0.03600
H 	H 	0.48220 0.41822 0.66240 0.03600
H 	H 	0.64803 0.49071 0.60582 0.06700
H 	H 	0.58807 0.51213 0.65902 0.05200
H 	H 	0.66053 0.45632 0.64319 0.06900
H 	H 	0.34168 0.48106 0.58070 0.03800
H 	H 	0.23085 0.50724 0.52665 0.05000
H 	H 	0.29564 0.51003 0.47890 0.05700
H 	H 	0.43178 0.56409 0.53508 0.02600
H 	H 	0.24862 0.56888 0.59198 0.07500
H 	H 	0.37598 0.56068 0.60092 0.07200
H 	H 	0.43918 0.46029 0.45040 0.04300
H 	H 	0.69425 0.39982 0.45763 0.02600
H 	H 	0.63551 0.36024 0.38243 0.06300
H 	H 	0.50517 0.38308 0.39833 0.05800
H 	H 	0.56559 0.34049 0.42119 0.06600
H 	H 	0.58453 0.47033 0.41832 0.05300
H 	H 	0.71151 0.44403 0.40639 0.05100
H 	H 	0.68068 0.48580 0.46019 0.05200
C 	C 	0.10758 0.06281 0.01714 -0.04900
C 	C 	1.00036 0.05527 0.02369 0.01500
C 	C 	0.91116 0.08633 0.01711 0.02300
C 	C 	0.90573 0.13507 0.05421 -0.18100
C 	C 	0.91010 0.08599 0.96973 -0.15800
C 	C 	0.97072 0.01616 0.03660 -0.08700
C 	C 	0.04157 0.98400 0.04455 0.05700
C 	C 	0.99992 0.94719 0.06427 -0.11600
C 	C 	1.04664 0.89544 0.04471 0.00500
N 	N 	1.14860 0.89289 0.06349 -0.18200
C 	C 	0.14675 0.99014 0.03791 -0.08800
C 	C 	0.18117 0.02848 0.02367 0.01800
C 	C 	0.29649 0.03106 0.01484 0.02300
C 	C 	0.36082 0.03254 0.05475 -0.17200
C 	C 	0.33294 0.98869 -0.02522 -0.19800
H 	H 	0.83669 0.06987 0.02064 0.01200
H 	H 	0.89327 0.12859 0.08585 0.05800
H 	H 	0.97731 0.15529 0.05692 0.07400
H 	H 	0.83930 0.15788 0.05071 0.06100
H 	H 	0.97779 0.10278 0.96154 0.06800
H 	H 	0.91058 0.04797 0.94739 0.05300
H 	H 	0.84098 0.10435 -0.03756 0.03600
H 	H 	0.88955 0.01098 0.04152 0.04100
H 	H 	0.91477 0.94507 0.06003 0.05100
H 	H 	1.01079 0.96107 0.10019 0.05400
H 	H 	0.05313 0.88687 0.00879 0.02800
H 	H 	1.14420 0.90885 0.09749 0.07200
H 	H 	1.17048 0.85680 0.05835 0.07400
H 	H 	0.20237 0.96473 0.04342 0.05100
H 	H 	0.31315 0.06466 1.00749 0.03900
H 	H 	0.44334 0.03598 0.04756 0.05200
H 	H 	0.35451 -0.00097 0.06349 0.05400
H 	H 	0.33552 0.06398 0.08324 0.05800
H 	H 	0.32435 0.95342 -0.01962 0.06000
H 	H 	0.41538 0.99229 0.96713 0.06700
H 	H 	0.28725 0.98880 0.94604 0.07700
C 	C 	0.90837 0.07893 0.52373 -0.04900
C 	C 	0.00589 0.07748 0.54353 0.01800
C 	C 	0.09772 0.10340 0.53407 0.03200
C 	C 	0.11573 0.08560 0.48395 -0.17600
C 	C 	0.08927 0.15841 0.55721 -0.18200
C 	C 	0.03340 1.03798 0.55714 -0.09200
C 	C 	0.98767 0.99391 0.53778 0.06000
C 	C 	0.05847 0.94887 0.52534 -0.12200
C 	C 	0.01985 0.90563 0.53772 0.00700
N 	N 	-0.03732 0.87249 0.50193 -0.17800
C 	C 	0.88975 0.99461 0.51999 -0.09000
C 	C 	0.84545 0.03796 0.51634 0.02100
C 	C 	0.73395 0.03875 0.50225 0.02800
C 	C 	0.71962 0.00442 0.45581 -0.17000
C 	C 	0.66069 1.02652 0.53450 -0.17400
H 	H 	0.16892 0.09183 0.54755 0.01400
H 	H 	0.08070 0.04992 0.46807 0.06100
H 	H 	0.08017 0.11120 0.46915 0.06300
H 	H 	0.19891 0.07851 0.47512 0.04900
H 	H 	0.04298 0.16704 0.58801 0.06700
H 	H 	0.16696 0.17332 0.56588 0.05800
H 	H 	0.05282 0.17763 0.53699 0.07500
H 	H 	0.10713 1.03767 0.57256 0.04300
H 	H 	0.13473 0.95877 0.54067 0.05200
H 	H 	1.07534 0.93783 0.48964 0.05000
H 	H 	-0.03171 0.91880 0.56717 0.02200
H 	H 	-0.10890 0.88765 0.49838 0.06900
H 	H 	0.00430 0.86383 0.47236 0.07700
H 	H 	0.84875 0.96163 0.50755 0.04200
H 	H 	0.71052 0.07560 0.50230 0.02900
H 	H 	0.63949 1.00868 0.44545 0.05400
H 	H 	0.73336 0.96602 0.45376 0.05300
H 	H 	0.77340 0.01314 0.43270 0.07700
H 	H 	0.67760 0.98961 0.53596 0.05500
H 	H 	0.57945 1.02816 0.52439 0.05400
H 	H 	0.66817 1.05309 0.56774 0.06000
C 	C 	0.58193 0.14370 0.25018 -0.08200
C 	C 	0.47245 0.15197 0.25429 0.02500
C 	C 	0.40834 0.15249 0.29410 -0.01800
C 	C 	0.41885 0.10373 0.30252 -0.16300
C 	C 	0.42473 0.19693 0.33418 -0.18200
C 	C 	0.41780 0.15617 0.21814 -0.09400
C 	C 	0.46700 0.14896 0.17785 0.06200
C 	C 	0.41245 0.16152 0.14170 -0.12100
C 	C 	0.43583 0.21353 0.14293 0.00700
N 	N 	0.53979 0.21635 0.12597 -0.17600
C 	C 	0.56907 0.13189 0.17196 -0.09400
C 	C 	0.62773 0.12904 0.20733 0.02600
C 	C 	0.74036 0.11128 0.19842 0.02000
C 	C 	0.74908 0.05963 0.16588 -0.16800
C 	C 	0.80319 0.14632 0.18241 -0.17000
H 	H 	0.32516 0.15565 0.28712 0.02300
H 	H 	0.36492 0.07783 0.28132 0.04000
H 	H 	0.49720 0.08686 0.29404 -0.07100
H 	H 	0.39857 0.10755 0.33691 -0.05400
H 	H 	0.40511 0.23038 0.32634 0.06200
H 	H 	0.37254 0.19594 0.36116 0.04200
H 	H 	0.50428 0.19941 0.34579 0.02600
H 	H 	0.33610 0.16552 0.22127 0.04400
H 	H 	0.32800 0.15828 0.14537 0.05200
H 	H 	0.43558 0.13516 0.10961 0.05300
H 	H 	0.43036 0.23767 0.17754 0.02800
H 	H 	0.54952 0.25150 0.12507 0.07000
H 	H 	0.59362 0.21219 0.14841 0.07200
H 	H 	0.60477 0.12293 0.13986 0.04400
H 	H 	0.77665 0.10887 0.22857 0.02400
H 	H 	0.82973 0.04520 0.16449 0.05800
H 	H 	0.72734 0.05858 0.13248 0.05400
H 	H 	0.69803 0.03561 0.17679 0.04500
H 	H 	0.77580 0.14759 0.15044 0.05500
H 	H 	0.88603 0.13497 0.17886 0.05700
H 	H 	0.79615 0.18352 0.20613 0.06600
C 	C 	0.56443 0.83634 0.27911 -0.09900
C 	C 	0.45959 0.82288 0.27779 0.02500
C 	C 	0.39874 0.80520 0.23580 0.00100
C 	C 	0.39287 0.84305 0.21232 -0.12400
C 	C 	0.43664 0.75548 0.20530 -0.16600
C 	C 	0.40781 0.82640 0.31725 -0.09500
C 	C 	0.45611 0.84452 0.35747 0.05800
C 	C 	0.41060 0.83581 0.39756 -0.11800
C 	C 	0.44795 0.78549 0.39882 0.00600
N 	N 	0.55110 0.78753 0.41694 -0.17800
C 	C 	0.55311 0.86458 0.35881 -0.09300
C 	C 	0.60824 0.86089 0.32003 0.02000
C 	C 	0.71610 0.88114 0.32284 0.01700
C 	C 	0.71090 0.93615 0.34448 -0.17000
C 	C 	0.78974 0.85611 0.34628 -0.16800
H 	H 	0.31770 0.80059 0.24454 0.01800
H 	H 	0.36445 0.87853 0.23531 0.01300
H 	H 	0.46923 0.84763 0.19900 -0.06000
H 	H 	0.33817 0.83170 0.18492 0.03500
H 	H 	0.44535 0.72978 0.22401 0.06100
H 	H 	0.37915 0.74104 0.17950 0.05300
H 	H 	0.51074 0.75738 0.18875 0.06300
H 	H 	0.33085 0.81270 0.31671 0.04400
H 	H 	0.32495 0.83768 0.39634 0.04900
H 	H 	0.43320 0.86456 0.42781 0.05200
H 	H 	0.45209 0.76003 0.36458 0.03100
H 	H 	0.57221 0.75333 0.41859 0.07500
H 	H 	0.60386 0.79413 0.39508 0.07500
H 	H 	0.58841 0.88038 0.39022 0.04200
H 	H 	0.75025 0.87497 0.28983 0.01200
H 	H 	0.78939 0.95097 0.34761 0.05900
H 	H 	0.67351 0.94595 0.37712 0.05600
H 	H 	0.66454 0.95316 0.32432 0.03200
H 	H 	0.76781 0.86521 0.38135 0.05400
H 	H 	0.87008 0.86743 0.34384 0.05300
H 	H 	0.78820 0.81615 0.33057 0.06500
C 	C 	0.46379 0.84379 0.78760 -0.10000
C 	C 	0.53460 0.81066 0.79691 0.03200
C 	C 	0.58638 0.76813 0.76132 -0.00300
C 	C 	0.51207 0.72818 0.73918 -0.16200
C 	C 	0.64390 0.78506 0.72746 -0.12400
C 	C 	0.56041 0.81788 0.84076 -0.09700
C 	C 	0.52148 0.85820 0.87468 0.06300
C 	C 	0.53001 0.86018 0.92213 -0.11800
C 	C 	0.64273 0.86240 0.93853 0.00600
N 	N 	0.65417 0.90564 0.97679 -0.18100
C 	C 	0.46730 0.89489 0.86394 -0.09100
C 	C 	0.43861 0.88841 0.82055 0.02100
C 	C 	0.37902 0.92872 0.80968 0.02500
C 	C 	0.27480 0.94089 0.83405 -0.17200
C 	C 	0.44371 0.97385 0.81866 -0.17500
H 	H 	0.64601 0.75100 0.77646 0.03600
H 	H 	0.46403 0.71917 0.76392 0.05900
H 	H 	0.46164 0.73928 0.71656 0.05900
H 	H 	0.55669 0.69501 0.71966 0.05300
H 	H 	0.69929 0.81327 0.74392 0.02300
H 	H 	0.68795 0.75408 0.70415 0.03800
H 	H 	0.58971 0.80011 0.70851 -0.05200
H 	H 	0.60848 0.79111 0.84868 0.05800
H 	H 	0.49123 0.82811 0.92577 0.05300
H 	H 	0.48360 0.89182 0.94342 0.05200
H 	H 	0.69600 0.86528 0.91239 0.03100
H 	H 	0.61486 0.90135 1.00366 0.07900
H 	H 	0.73232 0.90921 0.98456 0.08000
H 	H 	0.44322 0.92764 0.88979 0.04500
H 	H 	0.36234 0.91740 0.77431 0.00300
H 	H 	0.28524 0.95714 0.86969 0.06700
H 	H 	0.22943 0.90771 0.82773 0.06500
H 	H 	0.23005 0.96724 0.82254 0.06200
H 	H 	0.45689 0.99047 0.85417 0.05900
H 	H 	0.40337 1.00085 0.80644 0.04600
H 	H 	0.51949 0.96425 0.80121 0.02000
C 	C 	0.46088 0.14753 0.75489 -0.09600
C 	C 	0.53693 0.18154 0.75455 0.03500
C 	C 	0.60521 0.20478 0.79321 -0.01300
C 	C 	0.54755 0.24479 0.82914 -0.16200
C 	C 	0.65643 0.16656 0.81017 -0.11000
C 	C 	0.55160 0.19380 0.71635 -0.09800
C 	C 	0.49911 0.17005 0.67821 0.06800
C 	C 	0.49055 0.19222 0.64214 -0.11800
C 	C 	0.56730 0.16909 0.60348 0.00600
N 	N 	0.51243 0.13612 0.56693 -0.18100
C 	C 	0.44511 0.12867 0.67610 -0.09100
C 	C 	0.42659 0.11653 0.71416 0.02600
C 	C 	0.36375 0.07250 0.71178 0.02900
C 	C 	0.25606 0.07553 0.69335 -0.17400
C 	C 	0.42223 0.02602 0.68480 -0.18500
H 	H 	0.66953 0.22271 0.78202 0.02700
H 	H 	0.50885 0.27002 0.81446 0.05400
H 	H 	0.49081 0.22990 0.84669 0.04200
H 	H 	0.60158 0.26627 0.85353 0.04800
H 	H 	0.70681 0.14163 0.78404 0.02900
H 	H 	0.70498 0.18374 0.83866 0.01900
H 	H 	0.59819 0.14505 0.82015 -0.08900
H 	H 	0.60056 0.22341 0.71675 0.05400
H 	H 	0.50060 0.23184 0.65666 0.05000
H 	H 	0.40971 0.18938 0.63051 0.05000
H 	H 	0.62821 0.14763 0.61378 0.03400
H 	H 	0.46105 0.15618 0.55424 0.07200
H 	H 	0.56538 0.11849 0.54195 0.07700
H 	H 	0.41142 0.10799 0.64549 0.04900
H 	H 	0.35282 0.06993 0.74511 0.00600
H 	H 	0.26079 0.07237 0.65823 0.06000
H 	H 	0.21623 0.11046 0.71167 0.06700
H 	H 	0.20874 0.04566 0.69656 0.05900
H 	H 	0.43077 0.02409 0.65007 0.06400
H 	H 	0.37943 -0.00569 0.68629 0.08000
H 	H 	0.50003 0.02421 0.69837 0.04200
C 	C 	0.96149 0.67515 0.29685 -0.07100
C 	C 	0.96990 0.70739 0.27207 0.02500
C 	C 	0.03451 0.75297 0.28447 0.03000
C 	C 	0.04517 0.77832 0.33387 -0.17600
C 	C 	0.13946 0.74458 0.25990 -0.17300
C 	C 	0.91719 0.69697 0.23276 -0.08600
C 	C 	0.86006 0.65524 0.21696 0.06600
C 	C 	0.81744 0.63946 0.17100 -0.11900
C 	C 	0.89829 0.63038 0.13245 0.00400
N 	N 	1.00376 0.62268 0.14530 -0.18200
C 	C 	0.83631 0.62986 0.24557 -0.08500
C 	C 	0.88006 0.64189 0.28736 0.01300
C 	C 	0.83632 0.62259 0.32234 0.01900
C 	C 	0.79167 0.66493 0.36123 -0.22000
C 	C 	0.75229 0.58497 0.30666 -0.17300
H 	H 	-0.00972 0.78018 0.27358 0.01400
H 	H 	0.07224 0.81570 0.33988 0.05400
H 	H 	-0.03060 0.78060 0.35093 0.05800
H 	H 	0.10245 0.75972 0.34857 0.07400
H 	H 	0.13959 0.71201 0.23021 0.06100
H 	H 	0.15523 0.77634 0.24933 0.05100
H 	H 	0.20359 0.74025 0.28097 0.06900
H 	H 	0.92769 0.72019 0.21329 0.05500
H 	H 	0.75804 0.66712 0.16990 0.05900
H 	H 	0.77514 0.60545 0.16540 0.04200
H 	H 	0.87966 0.59691 0.10613 0.02300
H 	H 	1.03371 0.65472 0.16580 0.07800
H 	H 	1.00482 0.59675 0.16127 0.07800
H 	H 	0.78365 0.60062 0.23457 0.03900
H 	H 	0.90002 0.60356 0.33307 -0.10700
H 	H 	0.76355 0.65130 0.38753 -0.00900
H 	H 	0.72595 0.68364 0.35085 0.07400
H 	H 	0.85057 0.69218 0.37545 -0.00800
H 	H 	0.68376 0.60080 0.29518 0.05600
H 	H 	0.72668 0.57240 0.33394 0.03600
H 	H 	0.78312 0.55281 0.28002 0.04600
C 	C 	0.96948 0.30626 0.36915 -0.05300
C 	C 	0.93813 0.35532 0.37762 0.01700
C 	C 	0.99061 0.39575 0.41240 0.03300
C 	C 	0.91947 0.42045 0.45172 -0.18000
C 	C 	1.09463 0.37875 0.42560 -0.17900
C 	C 	0.89073 0.36815 0.34386 -0.08400
C 	C 	0.89158 0.33598 0.30086 0.05700
C 	C 	0.84254 0.35337 0.26589 -0.10700
C 	C 	0.86269 0.32148 0.21777 -0.02500
N 	N 	0.79042 0.33527 0.18900 -0.21500
C 	C 	0.94647 0.29144 0.29178 -0.07600
C 	C 	0.99319 0.27817 0.32523 0.02500
C 	C 	1.07741 0.23795 0.31416 0.02600
C 	C 	1.03850 0.18776 0.28774 -0.16800
C 	C 	0.16813 0.25110 0.28948 -0.17500
H 	H 	1.01097 0.42418 0.39787 0.01900
H 	H 	0.86843 0.44773 0.44444 0.05700
H 	H 	0.87117 0.39386 0.46001 0.07000
H 	H 	0.96544 0.44055 0.48017 0.06100
H 	H 	1.14636 0.36330 0.39641 0.06300
H 	H 	1.13452 0.40946 0.44881 0.06200
H 	H 	1.08247 0.35025 0.44052 0.07500
H 	H 	0.86021 0.40482 0.35054 0.03800
H 	H 	0.86942 0.39038 0.26968 0.03600
H 	H 	0.75801 0.35692 0.27262 0.04300
H 	H 	-0.15053 0.28285 0.21381 0.03300
H 	H 	0.71617 0.32558 0.19507 0.06300
H 	H 	0.78947 0.37287 0.19595 -0.01800
H 	H 	0.95575 0.26681 0.25900 0.05300
H 	H 	0.10934 0.23502 0.34507 0.02100
H 	H 	0.99982 0.18829 0.25739 0.06100
H 	H 	0.98465 0.17432 0.30760 0.05800
H 	H 	1.10461 0.16108 0.27850 0.05100
H 	H 	1.14591 0.24982 0.25604 0.07100
H 	H 	0.23413 0.22505 0.28612 0.05700
H 	H 	0.19504 0.28793 0.30754 0.06300
C 	C 	0.06111 0.31361 0.88712 -0.06000
C 	C 	0.96347 0.30861 0.86756 0.01800
C 	C 	0.86268 0.31765 0.89383 0.02800
C 	C 	0.80558 0.27048 0.88518 -0.17600
C 	C 	0.87461 0.34331 0.94309 -0.17700
C 	C 	0.96023 0.29160 0.82169 -0.08800
C 	C 	0.05185 0.28478 0.79702 0.05900
C 	C 	0.05666 0.25314 0.75009 -0.11600
C 	C 	0.05171 0.28321 0.71908 -0.01800
N 	N 	0.11212 0.25816 0.67923 -0.17500
C 	C 	0.14206 0.30495 0.81748 -0.08700
C 	C 	0.14555 0.32229 0.86327 0.02200
C 	C 	0.24412 0.34212 0.88620 0.02500
C 	C 	0.32985 0.30281 0.87638 -0.17400
C 	C 	0.27803 0.38576 0.87353 -0.17000
H 	H 	0.81360 0.34248 0.88192 0.01300
H 	H 	0.77709 0.25897 0.85136 0.05600
H 	H 	0.85782 0.24114 0.88833 0.05700
H 	H 	0.73802 0.27557 0.90782 0.05200
H 	H 	0.91841 0.37685 0.94881 0.06100
H 	H 	0.79739 0.35374 0.95906 0.05200
H 	H 	0.91462 0.31959 0.95889 0.06900
H 	H 	0.88786 0.28176 0.80521 0.04800
H 	H 	0.99541 0.22592 0.74339 0.05900
H 	H 	0.13054 0.23144 0.74448 0.06200
H 	H 	0.08697 0.31884 0.73501 -0.02100
H 	H 	0.07153 0.22863 0.65984 0.07400
H 	H 	0.12227 0.28192 0.66141 -0.00100
H 	H 	0.21073 0.30415 0.79789 0.04300
H 	H 	0.22976 0.35499 0.92213 0.02400
H 	H 	0.40254 0.31809 0.89213 0.05500
H 	H 	0.34366 0.28692 0.84068 0.06500
H 	H 	0.30826 0.27340 0.88921 0.06900
H 	H 	0.30010 0.37483 0.83835 0.04700
H 	H 	0.34527 0.40250 0.89297 0.05100
H 	H 	0.21409 0.41342 0.88010 0.04500
C 	C 	0.08196 0.67463 0.65532 -0.05200
C 	C 	0.14513 0.66824 0.68943 0.01800
C 	C 	0.26224 0.67804 0.69502 0.02800
C 	C 	0.32089 0.63468 0.70283 -0.16800
C 	C 	0.31771 0.68816 0.65665 -0.17900
C 	C 	0.09904 0.64827 0.71913 -0.08000
C 	C 	0.00603 0.62451 0.71016 0.04200
C 	C 	0.97127 0.59392 0.73724 -0.09500
C 	C 	0.85761 0.60344 0.75289 -0.04000
N 	N 	0.82057 0.56172 0.76383 -0.21500
C 	C 	0.95385 0.62360 0.67239 -0.07700
C 	C 	0.98674 0.65048 0.64606 0.01800
C 	C 	0.91694 0.65317 0.60913 0.02300
C 	C 	0.90023 0.60285 0.57604 -0.17100
C 	C 	0.81343 0.67905 0.62732 -0.17200
H 	H 	0.27137 0.70997 0.72471 0.02800
H 	H 	0.30402 0.63271 0.73583 0.04600
H 	H 	0.30012 0.60011 0.67795 0.05500
H 	H 	0.40580 0.63790 0.70138 0.05200
H 	H 	0.30922 0.72656 0.65911 0.07000
H 	H 	0.40221 0.68086 0.65587 0.05900
H 	H 	0.28872 0.66502 0.62533 0.08500
H 	H 	0.13933 0.64776 0.74808 0.03300
H 	H 	0.02156 0.59823 0.76582 -0.01800
H 	H 	0.98157 0.55550 0.71607 0.02700
H 	H 	0.80872 0.60785 0.72635 0.03800
H 	H 	0.82151 0.53175 0.73529 0.06800
H 	H 	-0.25715 0.56841 0.77358 0.06800
H 	H 	0.88496 0.60285 0.66401 0.04300
H 	H 	0.95285 0.67406 0.59028 0.02600
H 	H 	0.85881 0.60647 0.54730 0.05200
H 	H 	0.85357 0.58034 0.59049 0.05700
H 	H 	0.97577 0.58391 0.56442 0.06300
H 	H 	0.77136 0.65981 0.64645 0.05700
H 	H 	0.76348 0.68092 0.60021 0.05400
H 	H 	0.82683 0.71662 0.64871 0.05400
