data_crystal

_audit_creation_method 'AiiDA-DDEC plugin'

_cell_length_a        27.05747
_cell_length_b        27.05747
_cell_length_c        27.05747

_cell_angle_alpha     90.00000
_cell_angle_beta     90.00000
_cell_angle_gamma     90.00000

_symmetry_space_group_name_Hall 'P 1'
_symmetry_space_group_name_H-M  'P 1'

loop_
_symmetry_equiv_pos_as_xyz
 'x,y,z'

loop_
_atom_site_label
_atom_site_type_symbol
_atom_site_fract_x
_atom_site_fract_y
_atom_site_fract_z
_atom_site_charge
Zr         Zr      0.09137   0.00000   0.00000   2.34224
Zr         Zr      0.90863   0.00000   0.00000   2.34240
Zr         Zr      0.00000   0.09137   0.00000   2.34224
Zr         Zr      0.00000   0.90863   0.00000   2.34240
Zr         Zr      0.00000   0.00000   0.09137   2.34223
Zr         Zr      0.00000   0.00000   0.90863   2.34240
Zr         Zr      0.09137   0.50000   0.50000   2.34258
Zr         Zr      0.90863   0.50000   0.50000   2.34262
Zr         Zr      0.00000   0.59137   0.50000   2.34228
Zr         Zr      0.00000   0.40863   0.50000   2.34247
Zr         Zr      0.00000   0.50000   0.59137   2.34228
Zr         Zr      0.00000   0.50000   0.40863   2.34247
Zr         Zr      0.59137   0.00000   0.50000   2.34228
Zr         Zr      0.40863   0.00000   0.50000   2.34247
Zr         Zr      0.50000   0.09137   0.50000   2.34258
Zr         Zr      0.50000   0.90863   0.50000   2.34262
Zr         Zr      0.50000   0.00000   0.59137   2.34228
Zr         Zr      0.50000   0.00000   0.40863   2.34247
Zr         Zr      0.59137   0.50000   0.00000   2.34228
Zr         Zr      0.40863   0.50000   0.00000   2.34247
Zr         Zr      0.50000   0.59137   0.00000   2.34228
Zr         Zr      0.50000   0.40863   0.00000   2.34247
Zr         Zr      0.50000   0.50000   0.09137   2.34258
Zr         Zr      0.50000   0.50000   0.90863   2.34263
H          H       0.21647   0.00000   0.10452   0.12287
H          H       0.78353   0.00000   0.10452   0.12291
H          H       0.78353   0.00000   0.89548   0.12285
H          H       0.21647   0.00000   0.89548   0.12278
H          H       0.10452   0.21647   0.00000   0.12287
H          H       0.10452   0.78353   0.00000   0.12291
H          H       0.89548   0.78353   0.00000   0.12285
H          H       0.89548   0.21647   0.00000   0.12278
H          H       0.00000   0.10452   0.21647   0.12287
H          H       0.00000   0.10452   0.78353   0.12291
H          H       0.00000   0.89548   0.78353   0.12285
H          H       0.00000   0.89548   0.21647   0.12278
H          H       0.00000   0.21647   0.89548   0.12278
H          H       0.00000   0.78353   0.89548   0.12285
H          H       0.00000   0.78353   0.10452   0.12291
H          H       0.00000   0.21647   0.10452   0.12287
H          H       0.21647   0.10452   0.00000   0.12287
H          H       0.78353   0.10452   0.00000   0.12291
H          H       0.78353   0.89548   0.00000   0.12285
H          H       0.21647   0.89548   0.00000   0.12278
H          H       0.10452   0.00000   0.78353   0.12291
H          H       0.10452   0.00000   0.21647   0.12287
H          H       0.89548   0.00000   0.21647   0.12278
H          H       0.89548   0.00000   0.78353   0.12285
H          H       0.21647   0.50000   0.60452   0.12294
H          H       0.78353   0.50000   0.60452   0.12294
H          H       0.78353   0.50000   0.39548   0.12288
H          H       0.21647   0.50000   0.39548   0.12281
H          H       0.10452   0.71647   0.50000   0.12575
H          H       0.10452   0.28353   0.50000   0.12581
H          H       0.89548   0.28353   0.50000   0.12570
H          H       0.89548   0.71647   0.50000   0.12566
H          H       0.00000   0.60452   0.71647   0.12295
H          H       0.00000   0.60452   0.28353   0.12292
H          H       0.00000   0.39548   0.28353   0.12286
H          H       0.00000   0.39548   0.71647   0.12280
H          H       0.00000   0.71647   0.39548   0.12280
H          H       0.00000   0.28353   0.39548   0.12286
H          H       0.00000   0.28353   0.60452   0.12292
H          H       0.00000   0.71647   0.60452   0.12295
H          H       0.21647   0.60452   0.50000   0.12294
H          H       0.78353   0.60452   0.50000   0.12294
H          H       0.78353   0.39548   0.50000   0.12288
H          H       0.21647   0.39548   0.50000   0.12281
H          H       0.10452   0.50000   0.28353   0.12581
H          H       0.10452   0.50000   0.71647   0.12575
H          H       0.89548   0.50000   0.71647   0.12566
H          H       0.89548   0.50000   0.28353   0.12570
H          H       0.71647   0.00000   0.60452   0.12295
H          H       0.28353   0.00000   0.60452   0.12292
H          H       0.28353   0.00000   0.39548   0.12286
H          H       0.71647   0.00000   0.39548   0.12280
H          H       0.60452   0.21647   0.50000   0.12294
H          H       0.60452   0.78353   0.50000   0.12294
H          H       0.39548   0.78353   0.50000   0.12288
H          H       0.39548   0.21647   0.50000   0.12281
H          H       0.50000   0.10452   0.71647   0.12575
H          H       0.50000   0.10452   0.28353   0.12581
H          H       0.50000   0.89548   0.28353   0.12570
H          H       0.50000   0.89548   0.71647   0.12566
H          H       0.50000   0.21647   0.39548   0.12281
H          H       0.50000   0.78353   0.39548   0.12288
H          H       0.50000   0.78353   0.60452   0.12294
H          H       0.50000   0.21647   0.60452   0.12294
H          H       0.71647   0.10452   0.50000   0.12575
H          H       0.28353   0.10452   0.50000   0.12581
H          H       0.28353   0.89548   0.50000   0.12570
H          H       0.71647   0.89548   0.50000   0.12566
H          H       0.60452   0.00000   0.28353   0.12292
H          H       0.60452   0.00000   0.71647   0.12295
H          H       0.39548   0.00000   0.71647   0.12280
H          H       0.39548   0.00000   0.28353   0.12286
H          H       0.71647   0.50000   0.10452   0.12575
H          H       0.28353   0.50000   0.10452   0.12581
H          H       0.28353   0.50000   0.89548   0.12570
H          H       0.71647   0.50000   0.89548   0.12566
H          H       0.60452   0.71647   0.00000   0.12295
H          H       0.60452   0.28353   0.00000   0.12292
H          H       0.39548   0.28353   0.00000   0.12286
H          H       0.39548   0.71647   0.00000   0.12280
H          H       0.50000   0.60452   0.21647   0.12294
H          H       0.50000   0.60452   0.78353   0.12294
H          H       0.50000   0.39548   0.78353   0.12288
H          H       0.50000   0.39548   0.21647   0.12281
H          H       0.50000   0.71647   0.89548   0.12566
H          H       0.50000   0.28353   0.89548   0.12570
H          H       0.50000   0.28353   0.10452   0.12581
H          H       0.50000   0.71647   0.10452   0.12575
H          H       0.71647   0.60452   0.00000   0.12295
H          H       0.28353   0.60452   0.00000   0.12292
H          H       0.28353   0.39548   0.00000   0.12286
H          H       0.71647   0.39548   0.00000   0.12280
H          H       0.60452   0.50000   0.78353   0.12294
H          H       0.60452   0.50000   0.21647   0.12294
H          H       0.39548   0.50000   0.21647   0.12281
H          H       0.39548   0.50000   0.78353   0.12288
H          H       0.28137   0.00000   0.16840   0.10599
H          H       0.71862   0.00000   0.16840   0.10606
H          H       0.71862   0.00000   0.83160   0.10608
H          H       0.28137   0.00000   0.83160   0.10602
H          H       0.16840   0.28137   0.00000   0.10599
H          H       0.16840   0.71862   0.00000   0.10606
H          H       0.83160   0.71862   0.00000   0.10608
H          H       0.83160   0.28137   0.00000   0.10602
H          H       0.00000   0.16840   0.28137   0.10599
H          H       0.00000   0.16840   0.71862   0.10606
H          H       0.00000   0.83160   0.71862   0.10608
H          H       0.00000   0.83160   0.28137   0.10602
H          H       0.00000   0.28137   0.83160   0.10602
H          H       0.00000   0.71862   0.83160   0.10608
H          H       0.00000   0.71862   0.16840   0.10606
H          H       0.00000   0.28137   0.16840   0.10599
H          H       0.28137   0.16840   0.00000   0.10599
H          H       0.71862   0.16840   0.00000   0.10606
H          H       0.71862   0.83160   0.00000   0.10608
H          H       0.28137   0.83160   0.00000   0.10602
H          H       0.16840   0.00000   0.71862   0.10606
H          H       0.16840   0.00000   0.28137   0.10599
H          H       0.83160   0.00000   0.28137   0.10602
H          H       0.83160   0.00000   0.71862   0.10608
H          H       0.28137   0.50000   0.66840   0.10599
H          H       0.71862   0.50000   0.66840   0.10614
H          H       0.71862   0.50000   0.33160   0.10608
H          H       0.28137   0.50000   0.33160   0.10602
H          H       0.16840   0.78137   0.50000   0.10600
H          H       0.16840   0.21862   0.50000   0.10609
H          H       0.83160   0.21862   0.50000   0.10607
H          H       0.83160   0.78137   0.50000   0.10600
H          H       0.00000   0.66840   0.78137   0.10597
H          H       0.00000   0.66840   0.21862   0.10605
H          H       0.00000   0.33160   0.21862   0.10608
H          H       0.00000   0.33160   0.78137   0.10600
H          H       0.00000   0.78137   0.33160   0.10600
H          H       0.00000   0.21862   0.33160   0.10608
H          H       0.00000   0.21862   0.66840   0.10605
H          H       0.00000   0.78137   0.66840   0.10597
H          H       0.28137   0.66840   0.50000   0.10599
H          H       0.71862   0.66840   0.50000   0.10614
H          H       0.71862   0.33160   0.50000   0.10608
H          H       0.28137   0.33160   0.50000   0.10602
H          H       0.16840   0.50000   0.21862   0.10609
H          H       0.16840   0.50000   0.78137   0.10600
H          H       0.83160   0.50000   0.78137   0.10600
H          H       0.83160   0.50000   0.21862   0.10607
H          H       0.78137   0.00000   0.66840   0.10597
H          H       0.21862   0.00000   0.66840   0.10605
H          H       0.21862   0.00000   0.33160   0.10608
H          H       0.78137   0.00000   0.33160   0.10600
H          H       0.66840   0.28137   0.50000   0.10599
H          H       0.66840   0.71862   0.50000   0.10614
H          H       0.33160   0.71862   0.50000   0.10608
H          H       0.33160   0.28137   0.50000   0.10602
H          H       0.50000   0.16840   0.78137   0.10600
H          H       0.50000   0.16840   0.21862   0.10609
H          H       0.50000   0.83160   0.21862   0.10607
H          H       0.50000   0.83160   0.78137   0.10600
H          H       0.50000   0.28137   0.33160   0.10602
H          H       0.50000   0.71862   0.33160   0.10608
H          H       0.50000   0.71862   0.66840   0.10614
H          H       0.50000   0.28137   0.66840   0.10599
H          H       0.78137   0.16840   0.50000   0.10600
H          H       0.21862   0.16840   0.50000   0.10609
H          H       0.21862   0.83160   0.50000   0.10607
H          H       0.78137   0.83160   0.50000   0.10600
H          H       0.66840   0.00000   0.21862   0.10605
H          H       0.66840   0.00000   0.78137   0.10597
H          H       0.33160   0.00000   0.78137   0.10600
H          H       0.33160   0.00000   0.21862   0.10608
H          H       0.78137   0.50000   0.16840   0.10600
H          H       0.21862   0.50000   0.16840   0.10609
H          H       0.21862   0.50000   0.83160   0.10607
H          H       0.78137   0.50000   0.83160   0.10600
H          H       0.66840   0.78137   0.00000   0.10597
H          H       0.66840   0.21862   0.00000   0.10605
H          H       0.33160   0.21862   0.00000   0.10608
H          H       0.33160   0.78137   0.00000   0.10599
H          H       0.50000   0.66840   0.28137   0.10599
H          H       0.50000   0.66840   0.71862   0.10614
H          H       0.50000   0.33160   0.71862   0.10608
H          H       0.50000   0.33160   0.28137   0.10602
H          H       0.50000   0.78137   0.83160   0.10600
H          H       0.50000   0.21862   0.83160   0.10607
H          H       0.50000   0.21862   0.16840   0.10609
H          H       0.50000   0.78137   0.16840   0.10600
H          H       0.78137   0.66840   0.00000   0.10597
H          H       0.21862   0.66840   0.00000   0.10605
H          H       0.21862   0.33160   0.00000   0.10608
H          H       0.78137   0.33160   0.00000   0.10599
H          H       0.66840   0.50000   0.71862   0.10614
H          H       0.66840   0.50000   0.28137   0.10599
H          H       0.33160   0.50000   0.28137   0.10602
H          H       0.33160   0.50000   0.71862   0.10608
C          C       0.11731   0.00000   0.11731   0.62673
C          C       0.88268   0.00000   0.11731   0.62726
C          C       0.88268   0.00000   0.88268   0.62709
C          C       0.11731   0.00000   0.88268   0.62726
C          C       0.11731   0.11731   0.00000   0.62673
C          C       0.11731   0.88268   0.00000   0.62726
C          C       0.88268   0.88268   0.00000   0.62709
C          C       0.88268   0.11731   0.00000   0.62726
C          C       0.00000   0.11731   0.11731   0.62673
C          C       0.00000   0.11731   0.88268   0.62726
C          C       0.00000   0.88268   0.88268   0.62709
C          C       0.00000   0.88268   0.11731   0.62726
C          C       0.11731   0.50000   0.61731   0.62673
C          C       0.88268   0.50000   0.61731   0.62709
C          C       0.88268   0.50000   0.38268   0.62716
C          C       0.11731   0.50000   0.38268   0.62682
C          C       0.11731   0.61731   0.50000   0.62673
C          C       0.11731   0.38268   0.50000   0.62682
C          C       0.88268   0.38268   0.50000   0.62716
C          C       0.88268   0.61731   0.50000   0.62709
C          C       0.00000   0.61731   0.61731   0.62670
C          C       0.00000   0.61731   0.38268   0.62681
C          C       0.00000   0.38268   0.38268   0.62683
C          C       0.00000   0.38268   0.61731   0.62681
C          C       0.61731   0.00000   0.61731   0.62670
C          C       0.38268   0.00000   0.61731   0.62681
C          C       0.38268   0.00000   0.38268   0.62683
C          C       0.61731   0.00000   0.38268   0.62681
C          C       0.61731   0.11731   0.50000   0.62673
C          C       0.61731   0.88268   0.50000   0.62709
C          C       0.38268   0.88268   0.50000   0.62716
C          C       0.38268   0.11731   0.50000   0.62682
C          C       0.50000   0.11731   0.61731   0.62673
C          C       0.50000   0.11731   0.38268   0.62682
C          C       0.50000   0.88268   0.38268   0.62716
C          C       0.50000   0.88268   0.61731   0.62709
C          C       0.61731   0.50000   0.11731   0.62673
C          C       0.38268   0.50000   0.11731   0.62682
C          C       0.38268   0.50000   0.88268   0.62715
C          C       0.61731   0.50000   0.88268   0.62709
C          C       0.61731   0.61731   0.00000   0.62670
C          C       0.61731   0.38268   0.00000   0.62681
C          C       0.38268   0.38268   0.00000   0.62683
C          C       0.38268   0.61731   0.00000   0.62681
C          C       0.50000   0.61731   0.11731   0.62673
C          C       0.50000   0.61731   0.88268   0.62709
C          C       0.50000   0.38268   0.88268   0.62715
C          C       0.50000   0.38268   0.11731   0.62682
C          C       0.15642   0.00000   0.15642  -0.01352
C          C       0.84358   0.00000   0.15642  -0.01367
C          C       0.84358   0.00000   0.84358  -0.01362
C          C       0.15642   0.00000   0.84358  -0.01367
C          C       0.15642   0.15642   0.00000  -0.01352
C          C       0.15642   0.84358   0.00000  -0.01367
C          C       0.84358   0.84358   0.00000  -0.01362
C          C       0.84358   0.15642   0.00000  -0.01367
C          C       0.00000   0.15642   0.15642  -0.01352
C          C       0.00000   0.15642   0.84358  -0.01367
C          C       0.00000   0.84358   0.84358  -0.01362
C          C       0.00000   0.84358   0.15642  -0.01367
C          C       0.15642   0.50000   0.65642  -0.01384
C          C       0.84358   0.50000   0.65642  -0.01378
C          C       0.84358   0.50000   0.34358  -0.01376
C          C       0.15642   0.50000   0.34358  -0.01372
C          C       0.15642   0.65642   0.50000  -0.01384
C          C       0.15642   0.34358   0.50000  -0.01372
C          C       0.84358   0.34358   0.50000  -0.01376
C          C       0.84358   0.65642   0.50000  -0.01378
C          C       0.00000   0.65642   0.65642  -0.01361
C          C       0.00000   0.65642   0.34358  -0.01361
C          C       0.00000   0.34358   0.34358  -0.01366
C          C       0.00000   0.34358   0.65642  -0.01361
C          C       0.65642   0.00000   0.65642  -0.01361
C          C       0.34358   0.00000   0.65642  -0.01361
C          C       0.34358   0.00000   0.34358  -0.01366
C          C       0.65642   0.00000   0.34358  -0.01361
C          C       0.65642   0.15642   0.50000  -0.01384
C          C       0.65642   0.84358   0.50000  -0.01378
C          C       0.34358   0.84358   0.50000  -0.01376
C          C       0.34358   0.15642   0.50000  -0.01371
C          C       0.50000   0.15642   0.65642  -0.01384
C          C       0.50000   0.15642   0.34358  -0.01371
C          C       0.50000   0.84358   0.34358  -0.01376
C          C       0.50000   0.84358   0.65642  -0.01378
C          C       0.65642   0.50000   0.15642  -0.01384
C          C       0.34358   0.50000   0.15642  -0.01372
C          C       0.34358   0.50000   0.84358  -0.01375
C          C       0.65642   0.50000   0.84358  -0.01378
C          C       0.65642   0.65642   0.00000  -0.01361
C          C       0.65642   0.34358   0.00000  -0.01361
C          C       0.34358   0.34358   0.00000  -0.01366
C          C       0.34358   0.65642   0.00000  -0.01361
C          C       0.50000   0.65642   0.15642  -0.01384
C          C       0.50000   0.65642   0.84358  -0.01378
C          C       0.50000   0.34358   0.84358  -0.01375
C          C       0.50000   0.34358   0.15642  -0.01372
C          C       0.20665   0.00000   0.14350  -0.08930
C          C       0.79334   0.00000   0.14350  -0.08922
C          C       0.79334   0.00000   0.85650  -0.08953
C          C       0.20665   0.00000   0.85650  -0.08932
C          C       0.14350   0.20665   0.00000  -0.08930
C          C       0.14350   0.79334   0.00000  -0.08922
C          C       0.85650   0.79334   0.00000  -0.08953
C          C       0.85650   0.20665   0.00000  -0.08932
C          C       0.00000   0.14350   0.20665  -0.08930
C          C       0.00000   0.14350   0.79334  -0.08922
C          C       0.00000   0.85650   0.79334  -0.08953
C          C       0.00000   0.85650   0.20665  -0.08932
C          C       0.00000   0.20665   0.85650  -0.08932
C          C       0.00000   0.79334   0.85650  -0.08953
C          C       0.00000   0.79334   0.14350  -0.08922
C          C       0.00000   0.20665   0.14350  -0.08930
C          C       0.20665   0.14350   0.00000  -0.08930
C          C       0.79334   0.14350   0.00000  -0.08922
C          C       0.79334   0.85650   0.00000  -0.08953
C          C       0.20665   0.85650   0.00000  -0.08932
C          C       0.14350   0.00000   0.79334  -0.08922
C          C       0.14350   0.00000   0.20665  -0.08930
C          C       0.85650   0.00000   0.20665  -0.08932
C          C       0.85650   0.00000   0.79334  -0.08953
C          C       0.20665   0.50000   0.64350  -0.08914
C          C       0.79334   0.50000   0.64350  -0.08915
C          C       0.79334   0.50000   0.35650  -0.08932
C          C       0.20665   0.50000   0.35650  -0.08924
C          C       0.14350   0.70665   0.50000  -0.09175
C          C       0.14350   0.29334   0.50000  -0.09183
C          C       0.85650   0.29334   0.50000  -0.09194
C          C       0.85650   0.70665   0.50000  -0.09187
C          C       0.00000   0.64350   0.70665  -0.08926
C          C       0.00000   0.64350   0.29334  -0.08918
C          C       0.00000   0.35650   0.29334  -0.08927
C          C       0.00000   0.35650   0.70665  -0.08925
C          C       0.00000   0.70665   0.35650  -0.08925
C          C       0.00000   0.29334   0.35650  -0.08927
C          C       0.00000   0.29334   0.64350  -0.08918
C          C       0.00000   0.70665   0.64350  -0.08926
C          C       0.20665   0.64350   0.50000  -0.08914
C          C       0.79334   0.64350   0.50000  -0.08915
C          C       0.79334   0.35650   0.50000  -0.08932
C          C       0.20665   0.35650   0.50000  -0.08924
C          C       0.14350   0.50000   0.29334  -0.09183
C          C       0.14350   0.50000   0.70665  -0.09175
C          C       0.85650   0.50000   0.70665  -0.09187
C          C       0.85650   0.50000   0.29334  -0.09194
C          C       0.70665   0.00000   0.64350  -0.08926
C          C       0.29334   0.00000   0.64350  -0.08918
C          C       0.29334   0.00000   0.35650  -0.08927
C          C       0.70665   0.00000   0.35650  -0.08925
C          C       0.64350   0.20665   0.50000  -0.08914
C          C       0.64350   0.79334   0.50000  -0.08915
C          C       0.35650   0.79334   0.50000  -0.08932
C          C       0.35650   0.20665   0.50000  -0.08924
C          C       0.50000   0.14350   0.70665  -0.09174
C          C       0.50000   0.14350   0.29334  -0.09183
C          C       0.50000   0.85650   0.29334  -0.09194
C          C       0.50000   0.85650   0.70665  -0.09187
C          C       0.50000   0.20665   0.35650  -0.08924
C          C       0.50000   0.79334   0.35650  -0.08932
C          C       0.50000   0.79334   0.64350  -0.08915
C          C       0.50000   0.20665   0.64350  -0.08914
C          C       0.70665   0.14350   0.50000  -0.09174
C          C       0.29334   0.14350   0.50000  -0.09183
C          C       0.29334   0.85650   0.50000  -0.09194
C          C       0.70665   0.85650   0.50000  -0.09187
C          C       0.64350   0.00000   0.29334  -0.08918
C          C       0.64350   0.00000   0.70665  -0.08926
C          C       0.35650   0.00000   0.70665  -0.08925
C          C       0.35650   0.00000   0.29334  -0.08927
C          C       0.70665   0.50000   0.14350  -0.09174
C          C       0.29334   0.50000   0.14350  -0.09183
C          C       0.29334   0.50000   0.85650  -0.09194
C          C       0.70665   0.50000   0.85650  -0.09187
C          C       0.64350   0.70665   0.00000  -0.08926
C          C       0.64350   0.29334   0.00000  -0.08918
C          C       0.35650   0.29334   0.00000  -0.08927
C          C       0.35650   0.70665   0.00000  -0.08925
C          C       0.50000   0.64350   0.20665  -0.08914
C          C       0.50000   0.64350   0.79334  -0.08915
C          C       0.50000   0.35650   0.79334  -0.08932
C          C       0.50000   0.35650   0.20665  -0.08924
C          C       0.50000   0.70665   0.85650  -0.09187
C          C       0.50000   0.29334   0.85650  -0.09194
C          C       0.50000   0.29334   0.14350  -0.09183
C          C       0.50000   0.70665   0.14350  -0.09174
C          C       0.70665   0.64350   0.00000  -0.08926
C          C       0.29334   0.64350   0.00000  -0.08918
C          C       0.29334   0.35650   0.00000  -0.08927
C          C       0.70665   0.35650   0.00000  -0.08925
C          C       0.64350   0.50000   0.79334  -0.08915
C          C       0.64350   0.50000   0.20665  -0.08914
C          C       0.35650   0.50000   0.20665  -0.08924
C          C       0.35650   0.50000   0.79334  -0.08932
C          C       0.24290   0.00000   0.17984  -0.13306
C          C       0.75710   0.00000   0.17984  -0.13296
C          C       0.75710   0.00000   0.82016  -0.13294
C          C       0.24290   0.00000   0.82016  -0.13331
C          C       0.17984   0.24290   0.00000  -0.13306
C          C       0.17984   0.75710   0.00000  -0.13296
C          C       0.82016   0.75710   0.00000  -0.13294
C          C       0.82016   0.24290   0.00000  -0.13331
C          C       0.00000   0.17984   0.24290  -0.13306
C          C       0.00000   0.17984   0.75710  -0.13296
C          C       0.00000   0.82016   0.75710  -0.13294
C          C       0.00000   0.82016   0.24290  -0.13331
C          C       0.00000   0.24290   0.82016  -0.13331
C          C       0.00000   0.75710   0.82016  -0.13294
C          C       0.00000   0.75710   0.17984  -0.13296
C          C       0.00000   0.24290   0.17984  -0.13306
C          C       0.24290   0.17984   0.00000  -0.13306
C          C       0.75710   0.17984   0.00000  -0.13296
C          C       0.75710   0.82016   0.00000  -0.13294
C          C       0.24290   0.82016   0.00000  -0.13331
C          C       0.17984   0.00000   0.75710  -0.13296
C          C       0.17984   0.00000   0.24290  -0.13306
C          C       0.82016   0.00000   0.24290  -0.13331
C          C       0.82016   0.00000   0.75710  -0.13294
C          C       0.24290   0.50000   0.67984  -0.13295
C          C       0.75710   0.50000   0.67984  -0.13293
C          C       0.75710   0.50000   0.32016  -0.13301
C          C       0.24290   0.50000   0.32016  -0.13326
C          C       0.17984   0.74290   0.50000  -0.13337
C          C       0.17984   0.25710   0.50000  -0.13326
C          C       0.82016   0.25710   0.50000  -0.13329
C          C       0.82016   0.74290   0.50000  -0.13345
C          C       0.00000   0.67984   0.74290  -0.13301
C          C       0.00000   0.67984   0.25710  -0.13297
C          C       0.00000   0.32016   0.25710  -0.13321
C          C       0.00000   0.32016   0.74290  -0.13337
C          C       0.00000   0.74290   0.32016  -0.13337
C          C       0.00000   0.25710   0.32016  -0.13321
C          C       0.00000   0.25710   0.67984  -0.13297
C          C       0.00000   0.74290   0.67984  -0.13301
C          C       0.24290   0.67984   0.50000  -0.13295
C          C       0.75710   0.67984   0.50000  -0.13293
C          C       0.75710   0.32016   0.50000  -0.13301
C          C       0.24290   0.32016   0.50000  -0.13326
C          C       0.17984   0.50000   0.25710  -0.13326
C          C       0.17984   0.50000   0.74290  -0.13337
C          C       0.82016   0.50000   0.74290  -0.13345
C          C       0.82016   0.50000   0.25710  -0.13329
C          C       0.74290   0.00000   0.67984  -0.13301
C          C       0.25710   0.00000   0.67984  -0.13297
C          C       0.25710   0.00000   0.32016  -0.13321
C          C       0.74290   0.00000   0.32016  -0.13337
C          C       0.67984   0.24290   0.50000  -0.13295
C          C       0.67984   0.75710   0.50000  -0.13293
C          C       0.32016   0.75710   0.50000  -0.13301
C          C       0.32016   0.24290   0.50000  -0.13326
C          C       0.50000   0.17984   0.74290  -0.13337
C          C       0.50000   0.17984   0.25710  -0.13326
C          C       0.50000   0.82016   0.25710  -0.13329
C          C       0.50000   0.82016   0.74290  -0.13345
C          C       0.50000   0.24290   0.32016  -0.13326
C          C       0.50000   0.75710   0.32016  -0.13301
C          C       0.50000   0.75710   0.67984  -0.13293
C          C       0.50000   0.24290   0.67984  -0.13295
C          C       0.74290   0.17984   0.50000  -0.13337
C          C       0.25710   0.17984   0.50000  -0.13326
C          C       0.25710   0.82016   0.50000  -0.13329
C          C       0.74290   0.82016   0.50000  -0.13345
C          C       0.67984   0.00000   0.25710  -0.13297
C          C       0.67984   0.00000   0.74290  -0.13301
C          C       0.32016   0.00000   0.74290  -0.13337
C          C       0.32016   0.00000   0.25710  -0.13321
C          C       0.74290   0.50000   0.17984  -0.13337
C          C       0.25710   0.50000   0.17984  -0.13326
C          C       0.25710   0.50000   0.82016  -0.13329
C          C       0.74290   0.50000   0.82016  -0.13346
C          C       0.67984   0.74290   0.00000  -0.13301
C          C       0.67984   0.25710   0.00000  -0.13297
C          C       0.32016   0.25710   0.00000  -0.13321
C          C       0.32016   0.74290   0.00000  -0.13336
C          C       0.50000   0.67984   0.24290  -0.13295
C          C       0.50000   0.67984   0.75710  -0.13293
C          C       0.50000   0.32016   0.75710  -0.13301
C          C       0.50000   0.32016   0.24290  -0.13326
C          C       0.50000   0.74290   0.82016  -0.13346
C          C       0.50000   0.25710   0.82016  -0.13329
C          C       0.50000   0.25710   0.17984  -0.13326
C          C       0.50000   0.74290   0.17984  -0.13337
C          C       0.74290   0.67984   0.00000  -0.13301
C          C       0.25710   0.67984   0.00000  -0.13297
C          C       0.25710   0.32016   0.00000  -0.13321
C          C       0.74290   0.32016   0.00000  -0.13336
C          C       0.67984   0.50000   0.75710  -0.13293
C          C       0.67984   0.50000   0.24290  -0.13295
C          C       0.32016   0.50000   0.24290  -0.13326
C          C       0.32016   0.50000   0.75710  -0.13301
C          C       0.23069   0.00000   0.23069   0.07430
C          C       0.76931   0.00000   0.23069   0.07448
C          C       0.76931   0.00000   0.76931   0.07448
C          C       0.23069   0.00000   0.76931   0.07448
C          C       0.23069   0.23069   0.00000   0.07430
C          C       0.23069   0.76931   0.00000   0.07448
C          C       0.76931   0.76931   0.00000   0.07448
C          C       0.76931   0.23069   0.00000   0.07448
C          C       0.00000   0.23069   0.23069   0.07430
C          C       0.00000   0.23069   0.76931   0.07448
C          C       0.00000   0.76931   0.76931   0.07448
C          C       0.00000   0.76931   0.23069   0.07448
C          C       0.23069   0.50000   0.73069   0.07433
C          C       0.76931   0.50000   0.73069   0.07442
C          C       0.76931   0.50000   0.26931   0.07451
C          C       0.23069   0.50000   0.26931   0.07455
C          C       0.23069   0.73069   0.50000   0.07433
C          C       0.23069   0.26931   0.50000   0.07455
C          C       0.76931   0.26931   0.50000   0.07451
C          C       0.76931   0.73069   0.50000   0.07442
C          C       0.00000   0.73069   0.73069   0.07409
C          C       0.00000   0.73069   0.26931   0.07438
C          C       0.00000   0.26931   0.26931   0.07455
C          C       0.00000   0.26931   0.73069   0.07438
C          C       0.73069   0.00000   0.73069   0.07409
C          C       0.26931   0.00000   0.73069   0.07438
C          C       0.26931   0.00000   0.26931   0.07455
C          C       0.73069   0.00000   0.26931   0.07438
C          C       0.73069   0.23069   0.50000   0.07433
C          C       0.73069   0.76931   0.50000   0.07442
C          C       0.26931   0.76931   0.50000   0.07451
C          C       0.26931   0.23069   0.50000   0.07455
C          C       0.50000   0.23069   0.73069   0.07433
C          C       0.50000   0.23069   0.26931   0.07455
C          C       0.50000   0.76931   0.26931   0.07451
C          C       0.50000   0.76931   0.73069   0.07442
C          C       0.73069   0.50000   0.23069   0.07433
C          C       0.26931   0.50000   0.23069   0.07455
C          C       0.26931   0.50000   0.76931   0.07451
C          C       0.73069   0.50000   0.76931   0.07442
C          C       0.73069   0.73069   0.00000   0.07409
C          C       0.73069   0.26931   0.00000   0.07437
C          C       0.26931   0.26931   0.00000   0.07455
C          C       0.26931   0.73069   0.00000   0.07437
C          C       0.50000   0.73069   0.23069   0.07433
C          C       0.50000   0.73069   0.76931   0.07442
C          C       0.50000   0.26931   0.76931   0.07451
C          C       0.50000   0.26931   0.23069   0.07455
O          O       0.04492   0.04492   0.04492  -1.01355
O          O       0.95508   0.95508   0.04492  -1.01349
O          O       0.95508   0.04492   0.95508  -1.01349
O          O       0.04492   0.95508   0.95508  -1.01349
O          O       0.04492   0.04492   0.95508  -1.01353
O          O       0.95508   0.95508   0.95508  -1.01350
O          O       0.04492   0.95508   0.04492  -1.01353
O          O       0.95508   0.04492   0.04492  -1.01353
O          O       0.04492   0.54492   0.54492  -1.01359
O          O       0.95508   0.45508   0.54492  -1.01346
O          O       0.95508   0.54492   0.45508  -1.01346
O          O       0.04492   0.45508   0.45508  -1.01347
O          O       0.04492   0.54492   0.45508  -1.01350
O          O       0.95508   0.45508   0.45508  -1.01344
O          O       0.04492   0.45508   0.54492  -1.01350
O          O       0.95508   0.54492   0.54492  -1.01350
O          O       0.54492   0.04492   0.54492  -1.01359
O          O       0.45508   0.95508   0.54492  -1.01346
O          O       0.45508   0.04492   0.45508  -1.01347
O          O       0.54492   0.95508   0.45508  -1.01346
O          O       0.54492   0.04492   0.45508  -1.01350
O          O       0.45508   0.95508   0.45508  -1.01344
O          O       0.54492   0.95508   0.54492  -1.01350
O          O       0.45508   0.04492   0.54492  -1.01350
O          O       0.54492   0.54492   0.04492  -1.01359
O          O       0.45508   0.45508   0.04492  -1.01347
O          O       0.45508   0.54492   0.95508  -1.01346
O          O       0.54492   0.45508   0.95508  -1.01346
O          O       0.54492   0.54492   0.95508  -1.01350
O          O       0.45508   0.45508   0.95508  -1.01344
O          O       0.54492   0.45508   0.04492  -1.01350
O          O       0.45508   0.54492   0.04492  -1.01350
O          O       0.13238   0.00000   0.07259  -0.59798
O          O       0.86761   0.00000   0.07259  -0.59810
O          O       0.86761   0.00000   0.92741  -0.59822
O          O       0.13238   0.00000   0.92741  -0.59845
O          O       0.07259   0.13238   0.00000  -0.59798
O          O       0.07259   0.86761   0.00000  -0.59810
O          O       0.92741   0.86761   0.00000  -0.59822
O          O       0.92741   0.13238   0.00000  -0.59845
O          O       0.00000   0.07259   0.13238  -0.59798
O          O       0.00000   0.07259   0.86761  -0.59810
O          O       0.00000   0.92741   0.86761  -0.59822
O          O       0.00000   0.92741   0.13238  -0.59845
O          O       0.00000   0.13238   0.92741  -0.59845
O          O       0.00000   0.86761   0.92741  -0.59822
O          O       0.00000   0.86761   0.07259  -0.59810
O          O       0.00000   0.13238   0.07259  -0.59798
O          O       0.13238   0.07259   0.00000  -0.59798
O          O       0.86761   0.07259   0.00000  -0.59810
O          O       0.86761   0.92741   0.00000  -0.59822
O          O       0.13238   0.92741   0.00000  -0.59845
O          O       0.07259   0.00000   0.86761  -0.59810
O          O       0.07259   0.00000   0.13238  -0.59798
O          O       0.92741   0.00000   0.13238  -0.59845
O          O       0.92741   0.00000   0.86761  -0.59822
O          O       0.13238   0.50000   0.57259  -0.59792
O          O       0.86761   0.50000   0.57259  -0.59798
O          O       0.86761   0.50000   0.42741  -0.59812
O          O       0.13238   0.50000   0.42741  -0.59811
O          O       0.07259   0.63238   0.50000  -0.59832
O          O       0.07259   0.36761   0.50000  -0.59829
O          O       0.92741   0.36761   0.50000  -0.59865
O          O       0.92741   0.63238   0.50000  -0.59872
O          O       0.00000   0.57259   0.63238  -0.59793
O          O       0.00000   0.57259   0.36761  -0.59788
O          O       0.00000   0.42741   0.36761  -0.59804
O          O       0.00000   0.42741   0.63238  -0.59815
O          O       0.00000   0.63238   0.42741  -0.59815
O          O       0.00000   0.36761   0.42741  -0.59804
O          O       0.00000   0.36761   0.57259  -0.59788
O          O       0.00000   0.63238   0.57259  -0.59793
O          O       0.13238   0.57259   0.50000  -0.59792
O          O       0.86761   0.57259   0.50000  -0.59798
O          O       0.86761   0.42741   0.50000  -0.59812
O          O       0.13238   0.42741   0.50000  -0.59811
O          O       0.07259   0.50000   0.36761  -0.59829
O          O       0.07259   0.50000   0.63238  -0.59832
O          O       0.92741   0.50000   0.63238  -0.59872
O          O       0.92741   0.50000   0.36761  -0.59865
O          O       0.63238   0.00000   0.57259  -0.59793
O          O       0.36761   0.00000   0.57259  -0.59788
O          O       0.36761   0.00000   0.42741  -0.59804
O          O       0.63238   0.00000   0.42741  -0.59815
O          O       0.57259   0.13238   0.50000  -0.59792
O          O       0.57259   0.86761   0.50000  -0.59798
O          O       0.42741   0.86761   0.50000  -0.59812
O          O       0.42741   0.13238   0.50000  -0.59811
O          O       0.50000   0.07259   0.63238  -0.59832
O          O       0.50000   0.07259   0.36761  -0.59829
O          O       0.50000   0.92741   0.36761  -0.59865
O          O       0.50000   0.92741   0.63238  -0.59873
O          O       0.50000   0.13238   0.42741  -0.59811
O          O       0.50000   0.86761   0.42741  -0.59812
O          O       0.50000   0.86761   0.57259  -0.59798
O          O       0.50000   0.13238   0.57259  -0.59792
O          O       0.63238   0.07259   0.50000  -0.59832
O          O       0.36761   0.07259   0.50000  -0.59829
O          O       0.36761   0.92741   0.50000  -0.59865
O          O       0.63238   0.92741   0.50000  -0.59872
O          O       0.57259   0.00000   0.36761  -0.59788
O          O       0.57259   0.00000   0.63238  -0.59793
O          O       0.42741   0.00000   0.63238  -0.59815
O          O       0.42741   0.00000   0.36761  -0.59804
O          O       0.63238   0.50000   0.07259  -0.59832
O          O       0.36761   0.50000   0.07259  -0.59829
O          O       0.36761   0.50000   0.92741  -0.59865
O          O       0.63238   0.50000   0.92741  -0.59873
O          O       0.57259   0.63238   0.00000  -0.59793
O          O       0.57259   0.36761   0.00000  -0.59788
O          O       0.42741   0.36761   0.00000  -0.59804
O          O       0.42741   0.63238   0.00000  -0.59815
O          O       0.50000   0.57259   0.13238  -0.59792
O          O       0.50000   0.57259   0.86761  -0.59798
O          O       0.50000   0.42741   0.86761  -0.59811
O          O       0.50000   0.42741   0.13238  -0.59811
O          O       0.50000   0.63238   0.92741  -0.59873
O          O       0.50000   0.36761   0.92741  -0.59865
O          O       0.50000   0.36761   0.07259  -0.59829
O          O       0.50000   0.63238   0.07259  -0.59832
O          O       0.63238   0.57259   0.00000  -0.59793
O          O       0.36761   0.57259   0.00000  -0.59788
O          O       0.36761   0.42741   0.00000  -0.59804
O          O       0.63238   0.42741   0.00000  -0.59815
O          O       0.57259   0.50000   0.86761  -0.59798
O          O       0.57259   0.50000   0.13238  -0.59792
O          O       0.42741   0.50000   0.13238  -0.59811
O          O       0.42741   0.50000   0.86761  -0.59811

