data_crystal

_cell_length_a 24.81120
_cell_length_b 13.74610
_cell_length_c 13.66270
_cell_angle_alpha 90.00000
_cell_angle_beta  99.15300
_cell_angle_gamma 90.00000

_symmetry_space_group_name_	'P 1'
_symmetry_space_group_name_H-M	'P 1'

loop_
_symmetry_equiv_pos_as_xyz
  x,y,z

loop_
_atom_site_label
_atom_site_type_symbol
_atom_site_fract_x
_atom_site_fract_y
_atom_site_fract_z
_atom_site_charge
Sm	Sm	0.17023 0.21548 0.46104 1.83300
C 	C 	0.07530 0.28048 0.53748 0.32700
C 	C 	0.02402 0.31182 0.57474 -0.12400
C 	C 	0.98578 0.24360 0.59320 0.05200
H 	H 	0.99320 0.17760 0.58860 0.01500
C 	C 	0.93629 0.27370 0.61850 -0.14200
H 	H 	0.91070 0.22720 0.62980 0.07700
C 	C 	0.92410 0.37206 0.62747 0.09300
C 	C 	0.96322 0.43980 0.61070 -0.14100
H 	H 	0.95640 0.50600 0.61570 0.07500
C 	C 	0.01269 0.40800 0.58620 0.05200
H 	H 	0.03900 0.45390 0.57740 0.02100
C 	C 	0.86936 0.39993 0.65019 -0.07200
C 	C 	0.84619 0.34657 0.71914 0.04200
H 	H 	0.86680 0.29820 0.75500 0.02900
C 	C 	0.79335 0.36301 0.73630 -0.15900
C 	C 	0.76188 0.43346 0.67997 0.08200
H 	H 	0.72540 0.44210 0.68640 0.01300
C 	C 	0.78562 0.49103 0.61371 -0.16200
C 	C 	0.83886 0.47529 0.60036 0.03200
H 	H 	0.85460 0.51530 0.55780 0.02000
C 	C 	0.77129 0.30712 0.81685 0.45600
C 	C 	0.75078 0.56970 0.55873 0.42600
O 	O 	0.10696 0.34308 0.51399 -0.41700
O 	O 	0.08439 0.18995 0.52822 -0.43400
O 	O 	0.77273 0.64462 0.53041 -0.56800
O 	O 	0.69963 0.55892 0.54345 -0.45000
O 	O 	0.72306 0.32743 0.83011 -0.50200
O 	O 	0.80191 0.24671 0.86404 -0.47300
Sm	Sm	0.67023 0.71548 0.46104 1.83400
C 	C 	0.57530 0.78048 0.53748 0.32800
C 	C 	0.52402 0.81182 0.57474 -0.12400
C 	C 	0.48578 0.74360 0.59320 0.05100
H 	H 	0.49320 0.67760 0.58860 0.01500
C 	C 	0.43629 0.77370 0.61850 -0.14200
H 	H 	0.41070 0.72720 0.62980 0.07700
C 	C 	0.42410 0.87206 0.62747 0.09300
C 	C 	0.46322 0.93980 0.61070 -0.14300
H 	H 	0.45640 0.00600 0.61570 0.07500
C 	C 	0.51269 0.90800 0.58620 0.05300
H 	H 	0.53900 0.95390 0.57740 0.02000
C 	C 	0.36936 0.89993 0.65019 -0.07200
C 	C 	0.34619 0.84657 0.71914 0.04200
H 	H 	0.36680 0.79820 0.75500 0.02900
C 	C 	0.29335 0.86301 0.73630 -0.15900
C 	C 	0.26188 0.93346 0.67997 0.08200
H 	H 	0.22540 0.94210 0.68640 0.01300
C 	C 	0.28562 0.99103 0.61371 -0.16300
C 	C 	0.33886 0.97529 0.60036 0.03200
H 	H 	0.35460 0.01530 0.55780 0.02000
C 	C 	0.27129 0.80712 0.81685 0.45600
C 	C 	0.25078 0.06970 0.55873 0.42600
O 	O 	0.60696 0.84308 0.51399 -0.41700
O 	O 	0.58439 0.68995 0.52822 -0.43400
O 	O 	0.27273 0.14462 0.53041 -0.56800
O 	O 	0.19963 0.05892 0.54345 -0.45000
O 	O 	0.22306 0.82743 0.83011 -0.50200
O 	O 	0.30191 0.74671 0.86404 -0.47400
Sm	Sm	0.82977 0.21548 0.03896 1.83000
C 	C 	0.92470 0.28048 0.96252 0.32700
C 	C 	0.97598 0.31182 0.92526 -0.12200
C 	C 	0.01422 0.24360 0.90680 0.04900
H 	H 	0.00680 0.17760 0.91140 0.01600
C 	C 	0.06371 0.27370 0.88150 -0.14200
H 	H 	0.08930 0.22720 0.87020 0.07700
C 	C 	0.07590 0.37206 0.87253 0.09300
C 	C 	0.03678 0.43980 0.88930 -0.14400
H 	H 	0.04360 0.50600 0.88430 0.07500
C 	C 	0.98731 0.40800 0.91380 0.05500
H 	H 	0.96100 0.45390 0.92260 0.02000
C 	C 	0.13064 0.39993 0.84981 -0.07200
C 	C 	0.15381 0.34657 0.78086 0.04200
H 	H 	0.13320 0.29820 0.74500 0.02800
C 	C 	0.20665 0.36301 0.76370 -0.15900
C 	C 	0.23812 0.43346 0.82003 0.08200
H 	H 	0.27460 0.44210 0.81360 0.01300
C 	C 	0.21438 0.49103 0.88629 -0.16300
C 	C 	0.16114 0.47529 0.89964 0.03300
H 	H 	0.14540 0.51530 0.94220 0.01900
C 	C 	0.22871 0.30712 0.68315 0.45600
C 	C 	0.24922 0.56970 0.94127 0.42600
O 	O 	0.89304 0.34308 0.98601 -0.41600
O 	O 	0.91561 0.18995 0.97178 -0.43300
O 	O 	0.22727 0.64462 0.96959 -0.56800
O 	O 	0.30037 0.55892 0.95655 -0.45000
O 	O 	0.27694 0.32743 0.66989 -0.50200
O 	O 	0.19809 0.24671 0.63596 -0.47400
Sm	Sm	0.32977 0.71548 0.03896 1.83700
C 	C 	0.42470 0.78048 0.96252 0.32800
C 	C 	0.47598 0.81182 0.92526 -0.12500
C 	C 	0.51422 0.74360 0.90680 0.05200
H 	H 	0.50680 0.67760 0.91140 0.01500
C 	C 	0.56371 0.77370 0.88150 -0.14300
H 	H 	0.58930 0.72720 0.87020 0.07700
C 	C 	0.57590 0.87206 0.87253 0.09400
C 	C 	0.53678 0.93980 0.88930 -0.14300
H 	H 	0.54360 0.00600 0.88430 0.07600
C 	C 	0.48731 0.90800 0.91380 0.05400
H 	H 	0.46100 0.95390 0.92260 0.02000
C 	C 	0.63064 0.89993 0.84981 -0.07200
C 	C 	0.65381 0.84657 0.78086 0.04200
H 	H 	0.63320 0.79820 0.74500 0.02900
C 	C 	0.70665 0.86301 0.76370 -0.15900
C 	C 	0.73812 0.93346 0.82003 0.08200
H 	H 	0.77460 0.94210 0.81360 0.01300
C 	C 	0.71438 0.99103 0.88629 -0.16300
C 	C 	0.66114 0.97529 0.89964 0.03200
H 	H 	0.64540 0.01530 0.94220 0.02000
C 	C 	0.72871 0.80712 0.68315 0.45600
C 	C 	0.74922 0.06970 0.94127 0.42700
O 	O 	0.39304 0.84308 0.98601 -0.41800
O 	O 	0.41561 0.68995 0.97178 -0.43400
O 	O 	0.72727 0.14462 0.96959 -0.56800
O 	O 	0.80037 0.05892 0.95655 -0.44900
O 	O 	0.77694 0.82743 0.66989 -0.50200
O 	O 	0.69809 0.74671 0.63596 -0.47400
Sm	Sm	0.82977 0.78452 0.53896 1.83400
C 	C 	0.92470 0.71952 0.46252 0.32800
C 	C 	0.97598 0.68818 0.42526 -0.12400
C 	C 	0.01422 0.75640 0.40680 0.05200
H 	H 	0.00680 0.82240 0.41140 0.01500
C 	C 	0.06371 0.72630 0.38150 -0.14200
H 	H 	0.08930 0.77280 0.37020 0.07700
C 	C 	0.07590 0.62794 0.37253 0.09300
C 	C 	0.03678 0.56020 0.38930 -0.14100
H 	H 	0.04360 0.49400 0.38430 0.07500
C 	C 	0.98731 0.59200 0.41380 0.05200
H 	H 	0.96100 0.54610 0.42260 0.02100
C 	C 	0.13064 0.60007 0.34981 -0.07200
C 	C 	0.15381 0.65343 0.28086 0.04200
H 	H 	0.13320 0.70180 0.24500 0.02900
C 	C 	0.20665 0.63699 0.26370 -0.15900
C 	C 	0.23812 0.56654 0.32003 0.08200
H 	H 	0.27460 0.55790 0.31360 0.01300
C 	C 	0.21438 0.50897 0.38629 -0.16200
C 	C 	0.16114 0.52471 0.39964 0.03200
H 	H 	0.14540 0.48470 0.44220 0.02000
C 	C 	0.22871 0.69288 0.18315 0.45600
C 	C 	0.24922 0.43030 0.44127 0.42600
O 	O 	0.89304 0.65692 0.48601 -0.41700
O 	O 	0.91561 0.81005 0.47178 -0.43400
O 	O 	0.22727 0.35538 0.46959 -0.56800
O 	O 	0.30037 0.44108 0.45655 -0.45000
O 	O 	0.27694 0.67257 0.16989 -0.50200
O 	O 	0.19809 0.75329 0.13596 -0.47300
Sm	Sm	0.32977 0.28452 0.53896 1.83400
C 	C 	0.42470 0.21952 0.46252 0.32800
C 	C 	0.47598 0.18818 0.42526 -0.12400
C 	C 	0.51422 0.25640 0.40680 0.05100
H 	H 	0.50680 0.32240 0.41140 0.01500
C 	C 	0.56371 0.22630 0.38150 -0.14200
H 	H 	0.58930 0.27280 0.37020 0.07700
C 	C 	0.57590 0.12794 0.37253 0.09300
C 	C 	0.53678 0.06020 0.38930 -0.14300
H 	H 	0.54360 0.99400 0.38430 0.07500
C 	C 	0.48731 0.09200 0.41380 0.05300
H 	H 	0.46100 0.04610 0.42260 0.02000
C 	C 	0.63064 0.10007 0.34981 -0.07200
C 	C 	0.65381 0.15343 0.28086 0.04200
H 	H 	0.63320 0.20180 0.24500 0.02900
C 	C 	0.70665 0.13699 0.26370 -0.15900
C 	C 	0.73812 0.06654 0.32003 0.08200
H 	H 	0.77460 0.05790 0.31360 0.01300
C 	C 	0.71438 0.00897 0.38629 -0.16300
C 	C 	0.66114 0.02471 0.39964 0.03200
H 	H 	0.64540 0.98470 0.44220 0.02000
C 	C 	0.72871 0.19288 0.18315 0.45600
C 	C 	0.74922 0.93030 0.44127 0.42600
O 	O 	0.39304 0.15692 0.48601 -0.41700
O 	O 	0.41561 0.31005 0.47178 -0.43400
O 	O 	0.72727 0.85538 0.46959 -0.56800
O 	O 	0.80037 0.94108 0.45655 -0.45000
O 	O 	0.77694 0.17257 0.16989 -0.50200
O 	O 	0.69809 0.25329 0.13596 -0.47400
Sm	Sm	0.17023 0.78452 0.96104 1.83000
C 	C 	0.07530 0.71952 0.03748 0.32700
C 	C 	0.02402 0.68818 0.07474 -0.12200
C 	C 	0.98578 0.75640 0.09320 0.04900
H 	H 	0.99320 0.82240 0.08860 0.01600
C 	C 	0.93629 0.72630 0.11850 -0.14200
H 	H 	0.91070 0.77280 0.12980 0.07700
C 	C 	0.92410 0.62794 0.12747 0.09300
C 	C 	0.96322 0.56020 0.11070 -0.14400
H 	H 	0.95640 0.49400 0.11570 0.07500
C 	C 	0.01269 0.59200 0.08620 0.05500
H 	H 	0.03900 0.54610 0.07740 0.02000
C 	C 	0.86936 0.60007 0.15019 -0.07200
C 	C 	0.84619 0.65343 0.21914 0.04200
H 	H 	0.86680 0.70180 0.25500 0.02800
C 	C 	0.79335 0.63699 0.23630 -0.15900
C 	C 	0.76188 0.56654 0.17997 0.08200
H 	H 	0.72540 0.55790 0.18640 0.01300
C 	C 	0.78562 0.50897 0.11371 -0.16300
C 	C 	0.83886 0.52471 0.10036 0.03300
H 	H 	0.85460 0.48470 0.05780 0.01900
C 	C 	0.77129 0.69288 0.31685 0.45600
C 	C 	0.75078 0.43030 0.05873 0.42600
O 	O 	0.10696 0.65692 0.01399 -0.41600
O 	O 	0.08439 0.81005 0.02822 -0.43300
O 	O 	0.77273 0.35538 0.03041 -0.56800
O 	O 	0.69963 0.44108 0.04345 -0.45000
O 	O 	0.72306 0.67257 0.33011 -0.50200
O 	O 	0.80191 0.75329 0.36404 -0.47400
Sm	Sm	0.67023 0.28452 0.96104 1.83700
C 	C 	0.57530 0.21952 0.03748 0.32800
C 	C 	0.52402 0.18818 0.07474 -0.12500
C 	C 	0.48578 0.25640 0.09320 0.05200
H 	H 	0.49320 0.32240 0.08860 0.01500
C 	C 	0.43629 0.22630 0.11850 -0.14300
H 	H 	0.41070 0.27280 0.12980 0.07700
C 	C 	0.42410 0.12794 0.12747 0.09400
C 	C 	0.46322 0.06020 0.11070 -0.14300
H 	H 	0.45640 0.99400 0.11570 0.07600
C 	C 	0.51269 0.09200 0.08620 0.05400
H 	H 	0.53900 0.04610 0.07740 0.02000
C 	C 	0.36936 0.10007 0.15019 -0.07200
C 	C 	0.34619 0.15343 0.21914 0.04200
H 	H 	0.36680 0.20180 0.25500 0.02900
C 	C 	0.29335 0.13699 0.23630 -0.15900
C 	C 	0.26188 0.06654 0.17997 0.08200
H 	H 	0.22540 0.05790 0.18640 0.01300
C 	C 	0.28562 0.00897 0.11371 -0.16300
C 	C 	0.33886 0.02471 0.10036 0.03200
H 	H 	0.35460 0.98470 0.05780 0.02000
C 	C 	0.27129 0.19288 0.31685 0.45600
C 	C 	0.25078 0.93030 0.05873 0.42700
O 	O 	0.60696 0.15692 0.01399 -0.41800
O 	O 	0.58439 0.31005 0.02822 -0.43400
O 	O 	0.27273 0.85538 0.03041 -0.56800
O 	O 	0.19963 0.94108 0.04345 -0.44900
O 	O 	0.22306 0.17257 0.33011 -0.50200
O 	O 	0.30191 0.25329 0.36404 -0.47400
