data_crystal

_cell_length_a 16.43930
_cell_length_b 16.43930
_cell_length_c 23.77700
_cell_angle_alpha 90.00000
_cell_angle_beta  90.00000
_cell_angle_gamma 120.00000

_symmetry_space_group_name_	'P 1'
_symmetry_space_group_name_H-M	'P 1'

loop_
_symmetry_equiv_pos_as_xyz
  x,y,z

loop_
_atom_site_label
_atom_site_type_symbol
_atom_site_fract_x
_atom_site_fract_y
_atom_site_fract_z
_atom_site_charge
C 	C 	0.82580 0.80130 0.03740 0.33300
C 	C 	0.78830 0.69670 0.04200 -0.06200
C 	C 	0.83240 0.66140 0.07480 -0.03400
H 	H 	0.88960 0.70230 0.09160 0.06700
C 	C 	0.79280 0.56630 0.08280 -0.04700
H 	H 	0.82290 0.54390 0.10590 0.05500
C 	C 	0.70660 0.50150 0.05660 -0.01800
C 	C 	0.66620 0.53800 0.02130 -0.02200
H 	H 	0.61180 0.49710 0.00180 0.02400
C 	C 	0.70480 0.63490 0.01410 -0.10100
H 	H 	0.67520 0.65810 0.99100 0.10700
C 	C 	0.65740 0.40090 0.07040 0.07200
C 	C 	0.56130 0.34970 0.06910 -0.13300
H 	H 	0.52850 0.37950 0.05810 0.07200
C 	C 	0.35630 0.22130 0.04260 -0.11900
H 	H 	0.38890 0.26580 0.01480 0.06000
C 	C 	0.25940 0.17410 0.04300 0.04200
H 	H 	0.22710 0.18840 0.01630 0.01800
O 	O 	0.89140 0.85840 0.06880 -0.55400
O 	O 	0.79000 0.83050 0.00160 -0.46100
O 	O 	0.06420 0.07050 0.04510 -0.55000
C 	C 	0.19870 0.02450 0.37073 0.26900
C 	C 	0.30330 0.09160 0.37533 -0.10800
C 	C 	0.33860 0.17100 0.40813 -0.00400
H 	H 	0.29770 0.18730 0.42493 0.04300
C 	C 	0.43370 0.22650 0.41613 -0.08900
H 	H 	0.45610 0.27900 0.43923 0.05700
C 	C 	0.49850 0.20510 0.38993 0.02200
C 	C 	0.46200 0.12820 0.35463 -0.09900
H 	H 	0.50290 0.11470 0.33513 0.05300
C 	C 	0.36510 0.06990 0.34743 0.01100
H 	H 	0.34190 0.01710 0.32433 0.00900
C 	C 	0.59910 0.25650 0.40373 0.04600
C 	C 	0.65030 0.21160 0.40243 -0.11400
H 	H 	0.62050 0.14900 0.39143 0.06000
C 	C 	0.77870 0.13500 0.37593 -0.12800
H 	H 	0.73420 0.12310 0.34813 0.07000
C 	C 	0.82590 0.08530 0.37633 0.06600
H 	H 	0.81160 0.03870 0.34963 0.00500
O 	O 	0.14160 0.03300 0.40213 -0.60500
O 	O 	0.16950 0.95950 0.33493 -0.39100
O 	O 	0.92950 0.99370 0.37843 -0.41800
C 	C 	0.97550 0.17420 0.70407 0.46000
C 	C 	0.90840 0.21170 0.70867 -0.15800
C 	C 	0.82900 0.16760 0.74147 0.04300
H 	H 	0.81270 0.11040 0.75827 0.01800
C 	C 	0.77350 0.20720 0.74947 -0.11500
H 	H 	0.72100 0.17710 0.77257 0.06000
C 	C 	0.79490 0.29340 0.72327 0.04500
C 	C 	0.87180 0.33380 0.68797 -0.11700
H 	H 	0.88530 0.38820 0.66847 0.07600
C 	C 	0.93010 0.29520 0.68077 0.06100
H 	H 	0.98290 0.32480 0.65767 0.04300
C 	C 	0.74350 0.34260 0.73707 0.03900
C 	C 	0.78840 0.43870 0.73577 -0.10500
H 	H 	0.85100 0.47150 0.72477 0.07500
C 	C 	0.86500 0.64370 0.70927 -0.13300
H 	H 	0.87690 0.61110 0.68147 0.08600
C 	C 	0.91470 0.74060 0.70967 0.09200
H 	H 	0.96130 0.77290 0.68297 0.04300
O 	O 	0.96700 0.10860 0.73547 -0.59300
O 	O 	0.04050 0.21000 0.66827 -0.55000
O 	O 	0.00630 0.93580 0.71177 -0.56600
C 	C 	0.17420 0.19870 0.53740 0.36500
C 	C 	0.21170 0.30330 0.54200 -0.14000
C 	C 	0.16760 0.33860 0.57480 0.01900
H 	H 	0.11040 0.29770 0.59160 0.02200
C 	C 	0.20720 0.43370 0.58280 -0.10600
H 	H 	0.17710 0.45610 0.60590 0.05200
C 	C 	0.29340 0.49850 0.55660 0.03400
C 	C 	0.33380 0.46200 0.52130 -0.11100
H 	H 	0.38820 0.50290 0.50180 0.06500
C 	C 	0.29520 0.36510 0.51410 0.03700
H 	H 	0.32480 0.34190 0.49100 0.02400
C 	C 	0.34260 0.59910 0.57040 0.03800
C 	C 	0.43870 0.65030 0.56910 -0.10700
H 	H 	0.47150 0.62050 0.55810 0.06600
C 	C 	0.64370 0.77870 0.54260 -0.13400
H 	H 	0.61110 0.73420 0.51480 0.08100
C 	C 	0.74060 0.82590 0.54300 0.08800
H 	H 	0.77290 0.81160 0.51630 0.02300
O 	O 	0.10860 0.14160 0.56880 -0.61900
O 	O 	0.21000 0.16950 0.50160 -0.47600
O 	O 	0.93580 0.92950 0.54510 -0.47000
C 	C 	0.80130 0.97550 0.87073 0.44400
C 	C 	0.69670 0.90840 0.87533 -0.13900
C 	C 	0.66140 0.82900 0.90813 0.03800
H 	H 	0.70230 0.81270 0.92493 0.04100
C 	C 	0.56630 0.77350 0.91613 -0.10200
H 	H 	0.54390 0.72100 0.93923 0.07200
C 	C 	0.50150 0.79490 0.88993 0.04400
C 	C 	0.53800 0.87180 0.85463 -0.10700
H 	H 	0.49710 0.88530 0.83513 0.07300
C 	C 	0.63490 0.93010 0.84743 0.05400
H 	H 	0.65810 0.98290 0.82433 0.04700
C 	C 	0.40090 0.74350 0.90373 0.04400
C 	C 	0.34970 0.78840 0.90243 -0.10700
H 	H 	0.37950 0.85100 0.89143 0.07800
C 	C 	0.22130 0.86500 0.87593 -0.11900
H 	H 	0.26580 0.87690 0.84813 0.07900
C 	C 	0.17410 0.91470 0.87633 0.06400
H 	H 	0.18840 0.96130 0.84963 0.04800
O 	O 	0.85840 0.96700 0.90213 -0.54800
O 	O 	0.83050 0.04050 0.83493 -0.52000
O 	O 	0.07050 0.00630 0.87843 -0.58200
C 	C 	0.02450 0.82580 0.20407 0.26600
C 	C 	0.09160 0.78830 0.20867 -0.09800
C 	C 	0.17100 0.83240 0.24147 -0.00500
H 	H 	0.18730 0.88960 0.25827 0.05800
C 	C 	0.22650 0.79280 0.24947 -0.08100
H 	H 	0.27900 0.82290 0.27257 0.06700
C 	C 	0.20510 0.70660 0.22327 0.01800
C 	C 	0.12820 0.66620 0.18797 -0.09300
H 	H 	0.11470 0.61180 0.16847 0.04800
C 	C 	0.06990 0.70480 0.18077 0.00600
H 	H 	0.01710 0.67520 0.15767 0.01100
C 	C 	0.25650 0.65740 0.23707 0.05200
C 	C 	0.21160 0.56130 0.23577 -0.12100
H 	H 	0.14900 0.52850 0.22477 0.06200
C 	C 	0.13500 0.35630 0.20927 -0.11800
H 	H 	0.12310 0.38890 0.18147 0.06000
C 	C 	0.08530 0.25940 0.20967 0.04200
H 	H 	0.03870 0.22710 0.18297 0.00700
O 	O 	0.03300 0.89140 0.23547 -0.57500
O 	O 	0.95950 0.79000 0.16827 -0.38300
O 	O 	0.99370 0.06420 0.21177 -0.45300
C 	C 	0.80130 0.82580 0.29593 0.35500
C 	C 	0.69670 0.78830 0.29133 -0.11500
C 	C 	0.66140 0.83240 0.25853 0.01500
H 	H 	0.70230 0.88960 0.24173 0.05200
C 	C 	0.56630 0.79280 0.25053 -0.08900
H 	H 	0.54390 0.82290 0.22743 0.07000
C 	C 	0.50150 0.70660 0.27673 0.02900
C 	C 	0.53800 0.66620 0.31203 -0.09800
H 	H 	0.49710 0.61180 0.33153 0.06100
C 	C 	0.63490 0.70480 0.31923 0.02900
H 	H 	0.65810 0.67520 0.34233 0.03100
C 	C 	0.40090 0.65740 0.26293 0.05200
C 	C 	0.34970 0.56130 0.26423 -0.12000
H 	H 	0.37950 0.52850 0.27523 0.07000
C 	C 	0.22130 0.35630 0.29073 -0.11600
H 	H 	0.26580 0.38890 0.31853 0.06800
C 	C 	0.17410 0.25940 0.29033 0.04300
H 	H 	0.18840 0.22710 0.31703 0.02800
O 	O 	0.85840 0.89140 0.26453 -0.55300
O 	O 	0.83050 0.79000 0.33173 -0.44400
O 	O 	0.07050 0.06420 0.28823 -0.53700
C 	C 	0.02450 0.19870 0.96260 0.28100
C 	C 	0.09160 0.30330 0.95800 -0.15100
C 	C 	0.17100 0.33860 0.92520 0.03900
H 	H 	0.18730 0.29770 0.90840 0.03200
C 	C 	0.22650 0.43370 0.91720 -0.12400
H 	H 	0.27900 0.45610 0.89410 0.07100
C 	C 	0.20510 0.49850 0.94340 0.06300
C 	C 	0.12820 0.46200 0.97870 -0.16400
H 	H 	0.11470 0.50290 0.99820 0.08600
C 	C 	0.06990 0.36510 0.98590 0.12500
H 	H 	0.01710 0.34190 0.00900 -0.05800
C 	C 	0.25650 0.59910 0.92960 0.03100
C 	C 	0.21160 0.65030 0.93090 -0.10300
H 	H 	0.14900 0.62050 0.94190 0.05900
C 	C 	0.13500 0.77870 0.95740 -0.12200
H 	H 	0.12310 0.73420 0.98520 0.07600
C 	C 	0.08530 0.82590 0.95700 0.06300
H 	H 	0.03870 0.81160 0.98370 0.01600
O 	O 	0.03300 0.14160 0.93120 -0.60000
O 	O 	0.95950 0.16950 0.99840 -0.36200
O 	O 	0.99370 0.92950 0.95490 -0.39200
C 	C 	0.17420 0.97550 0.62927 0.45400
C 	C 	0.21170 0.90840 0.62467 -0.15700
C 	C 	0.16760 0.82900 0.59187 0.04000
H 	H 	0.11040 0.81270 0.57507 0.01800
C 	C 	0.20720 0.77350 0.58387 -0.11400
H 	H 	0.17710 0.72100 0.56077 0.05700
C 	C 	0.29340 0.79490 0.61007 0.04300
C 	C 	0.33380 0.87180 0.64537 -0.11600
H 	H 	0.38820 0.88530 0.66487 0.07500
C 	C 	0.29520 0.93010 0.65257 0.05900
H 	H 	0.32480 0.98290 0.67567 0.04200
C 	C 	0.34260 0.74350 0.59627 0.03800
C 	C 	0.43870 0.78840 0.59757 -0.10600
H 	H 	0.47150 0.85100 0.60857 0.07400
C 	C 	0.64370 0.86500 0.62407 -0.13200
H 	H 	0.61110 0.87690 0.65187 0.08500
C 	C 	0.74060 0.91470 0.62367 0.08900
H 	H 	0.77290 0.96130 0.65037 0.04200
O 	O 	0.10860 0.96700 0.59787 -0.59400
O 	O 	0.21000 0.04050 0.66507 -0.54500
O 	O 	0.93580 0.00630 0.62157 -0.55800
C 	C 	0.19870 0.17420 0.79593 0.36600
C 	C 	0.30330 0.21170 0.79133 -0.13800
C 	C 	0.33860 0.16760 0.75853 0.02000
H 	H 	0.29770 0.11040 0.74173 0.02300
C 	C 	0.43370 0.20720 0.75053 -0.10600
H 	H 	0.45610 0.17710 0.72743 0.05300
C 	C 	0.49850 0.29340 0.77673 0.03600
C 	C 	0.46200 0.33380 0.81203 -0.11000
H 	H 	0.50290 0.38820 0.83153 0.06900
C 	C 	0.36510 0.29520 0.81923 0.04000
H 	H 	0.34190 0.32480 0.84233 0.02600
C 	C 	0.59910 0.34260 0.76293 0.03900
C 	C 	0.65030 0.43870 0.76423 -0.10500
H 	H 	0.62050 0.47150 0.77523 0.06700
C 	C 	0.77870 0.64370 0.79073 -0.13500
H 	H 	0.73420 0.61110 0.81853 0.08500
C 	C 	0.82590 0.74060 0.79033 0.09200
H 	H 	0.81160 0.77290 0.81703 0.02300
O 	O 	0.14160 0.10860 0.76453 -0.61900
O 	O 	0.16950 0.21000 0.83173 -0.47400
O 	O 	0.92950 0.93580 0.78823 -0.47200
C 	C 	0.97550 0.80130 0.46260 0.45100
C 	C 	0.90840 0.69670 0.45800 -0.14500
C 	C 	0.82900 0.66140 0.42520 0.03900
H 	H 	0.81270 0.70230 0.40840 0.03300
C 	C 	0.77350 0.56630 0.41720 -0.10600
H 	H 	0.72100 0.54390 0.39410 0.06700
C 	C 	0.79490 0.50150 0.44340 0.04200
C 	C 	0.87180 0.53800 0.47870 -0.10900
H 	H 	0.88530 0.49710 0.49820 0.07300
C 	C 	0.93010 0.63490 0.48590 0.05500
H 	H 	0.98290 0.65810 0.50900 0.04600
C 	C 	0.74350 0.40090 0.42960 0.04600
C 	C 	0.78840 0.34970 0.43090 -0.11200
H 	H 	0.85100 0.37950 0.44190 0.07700
C 	C 	0.86500 0.22130 0.45740 -0.12300
H 	H 	0.87690 0.26580 0.48520 0.07900
C 	C 	0.91470 0.17410 0.45700 0.06800
H 	H 	0.96130 0.18840 0.48370 0.04600
O 	O 	0.96700 0.85840 0.43120 -0.55900
O 	O 	0.04050 0.83050 0.49840 -0.52800
O 	O 	0.00630 0.07050 0.45490 -0.59300
C 	C 	0.82580 0.02450 0.12927 0.26400
C 	C 	0.78830 0.09160 0.12467 -0.10100
C 	C 	0.83240 0.17100 0.09187 -0.00600
H 	H 	0.88960 0.18730 0.07507 0.04900
C 	C 	0.79280 0.22650 0.08387 -0.08300
H 	H 	0.82290 0.27900 0.06077 0.06100
C 	C 	0.70660 0.20510 0.11007 0.01600
C 	C 	0.66620 0.12820 0.14537 -0.09300
H 	H 	0.61180 0.11470 0.16487 0.05000
C 	C 	0.70480 0.06990 0.15257 0.00600
H 	H 	0.67520 0.01710 0.17567 0.01100
C 	C 	0.65740 0.25650 0.09627 0.05600
C 	C 	0.56130 0.21160 0.09757 -0.12700
H 	H 	0.52850 0.14900 0.10857 0.06200
C 	C 	0.35630 0.13500 0.12407 -0.11900
H 	H 	0.38890 0.12310 0.15187 0.06200
C 	C 	0.25940 0.08530 0.12367 0.04200
H 	H 	0.22710 0.03870 0.15037 0.00600
O 	O 	0.89140 0.03300 0.09787 -0.58100
O 	O 	0.79000 0.95950 0.16507 -0.38000
O 	O 	0.06420 0.99370 0.12157 -0.45300
Pr	Pr	0.91567 0.00000 -0.00000 2.03200
Pr	Pr	0.00000 0.91567 0.33333 2.04900
Pr	Pr	0.08433 0.08433 0.66667 2.04000
Pr	Pr	0.08433 0.00000 0.50000 2.02400
Pr	Pr	0.00000 0.08433 0.83333 2.02300
Pr	Pr	0.91567 0.91567 0.16667 2.09000
C 	C 	0.70670 0.35335 0.08333 -0.13200
H 	H 	0.77200 0.38600 0.08333 0.08000
C 	C 	0.51080 0.25540 0.08333 0.04900
C 	C 	0.40550 0.20275 0.08333 0.03700
C 	C 	0.20950 0.10475 0.08333 -0.14000
C 	C 	0.10410 0.05205 0.08333 0.36400
C 	C 	0.64665 0.35335 0.41667 -0.11200
H 	H 	0.61400 0.38600 0.41667 0.06700
C 	C 	0.74460 0.25540 0.41667 0.04200
C 	C 	0.79725 0.20275 0.41667 0.05500
C 	C 	0.89525 0.10475 0.41667 -0.15100
C 	C 	0.94795 0.05205 0.41667 0.46200
C 	C 	0.64665 0.29330 0.75000 -0.10400
H 	H 	0.61400 0.22800 0.75000 0.05700
C 	C 	0.74460 0.48920 0.75000 0.03800
C 	C 	0.79725 0.59450 0.75000 0.07100
C 	C 	0.89525 0.79050 0.75000 -0.16800
C 	C 	0.94795 0.89590 0.75000 0.55700
C 	C 	0.29330 0.64665 0.58333 -0.10600
H 	H 	0.22800 0.61400 0.58333 0.05600
C 	C 	0.48920 0.74460 0.58333 0.03800
C 	C 	0.59450 0.79725 0.58333 0.06800
C 	C 	0.79050 0.89525 0.58333 -0.16600
C 	C 	0.89590 0.94795 0.58333 0.55000
C 	C 	0.35335 0.64665 0.91667 -0.10100
H 	H 	0.38600 0.61400 0.91667 0.06600
C 	C 	0.25540 0.74460 0.91667 0.04000
C 	C 	0.20275 0.79725 0.91667 0.05600
C 	C 	0.10475 0.89525 0.91667 -0.14000
C 	C 	0.05205 0.94795 0.91667 0.44500
C 	C 	0.35335 0.70670 0.25000 -0.12000
H 	H 	0.38600 0.77200 0.25000 0.07800
C 	C 	0.25540 0.51080 0.25000 0.04500
C 	C 	0.20275 0.40550 0.25000 0.04000
C 	C 	0.10475 0.20950 0.25000 -0.13500
C 	C 	0.05205 0.10410 0.25000 0.36500
