data_crystal

_cell_length_a 45.82550
_cell_length_b 42.82040
_cell_length_c 7.48340
_cell_angle_alpha 86.04180
_cell_angle_beta  92.32390
_cell_angle_gamma 88.89110

_symmetry_space_group_name_	'P 1'
_symmetry_space_group_name_H-M	'P 1'

loop_
_symmetry_equiv_pos_as_xyz
  x,y,z

loop_
_atom_site_label
_atom_site_type_symbol
_atom_site_fract_x
_atom_site_fract_y
_atom_site_fract_z
_atom_site_charge
C 	C 	0.50621 0.08924 0.20863 -0.08100
C 	C 	0.49405 0.06197 0.15625 0.10600
C 	C 	0.46422 0.05856 0.14034 -0.15500
C 	C 	0.45226 0.03039 0.10337 0.10400
C 	C 	0.42237 0.02605 0.09483 -0.07500
Ni	Ni	0.50900 -0.00181 0.06003 1.05300
C 	C 	0.44631 0.98249 0.05697 0.10200
C 	C 	0.41867 0.99548 0.06730 -0.07400
C 	C 	0.56754 0.04537 1.08650 -0.08400
H 	H 	0.46725 0.89030 -0.04319 0.05700
H 	H 	0.52340 0.88171 0.95898 0.04300
H 	H 	0.61190 0.95500 0.95559 0.04400
H 	H 	0.61751 0.01519 0.96481 0.04200
N 	N 	0.50358 0.95553 0.00934 -0.28800
N 	N 	0.55006 -0.00694 1.03419 -0.28700
N 	N 	0.51469 0.04051 1.11711 -0.28500
N 	N 	0.46765 0.00374 0.07778 -0.29000
H 	H 	0.55024 0.10377 0.22655 0.03500
H 	H 	0.49524 0.11027 0.24623 0.05000
H 	H 	0.40500 0.04317 0.10869 0.04400
H 	H 	0.39798 0.98404 0.05317 0.04400
C 	C 	0.47830 0.93959 -0.00032 0.10500
C 	C 	0.48319 0.90837 -0.02875 -0.07500
C 	C 	0.51238 0.90389 -0.02683 -0.05700
C 	C 	0.52436 0.93275 0.99771 0.09400
C 	C 	0.55404 0.93693 1.01246 -0.15900
C 	C 	0.56543 0.96637 1.00924 0.10700
C 	C 	0.59461 0.97177 0.98042 -0.08000
C 	C 	0.59762 0.00298 0.98687 -0.06100
C 	C 	0.57087 0.01525 1.03017 0.07300
C 	C 	0.45080 0.95143 0.02879 -0.14800
C 	C 	0.54026 0.05593 1.13745 0.07000
C 	C 	0.53531 0.08540 0.19916 -0.06100
C 	C 	0.65953 0.74890 0.97229 -0.06600
C 	C 	0.68662 0.74069 0.91113 0.07500
C 	C 	0.69224 0.71695 0.79500 -0.09300
C 	C 	0.72030 0.70300 0.80977 0.08000
C 	C 	0.72703 0.67153 0.79901 -0.06700
Ni	Ni	0.74676 0.75887 0.93045 1.06100
C 	C 	0.76670 0.69668 0.87100 0.07800
C 	C 	0.75672 0.66773 0.83110 -0.07000
C 	C 	0.70711 0.80077 1.18135 -0.10300
H 	H 	0.84958 0.72996 0.77412 0.03800
H 	H 	0.85042 0.79038 0.80507 0.04500
H 	H 	0.77337 0.87154 0.99398 0.03800
H 	H 	0.72305 0.86509 1.14628 0.04700
N 	N 	0.78601 0.75988 0.86829 -0.28500
N 	N 	0.74829 0.80037 0.99270 -0.28800
N 	N 	0.70759 0.75747 0.99008 -0.28500
N 	N 	0.74452 0.71789 0.86312 -0.28800
H 	H 	0.64763 0.78435 1.15391 0.03500
H 	H 	0.63842 0.73987 0.93557 0.03700
H 	H 	0.71211 0.65271 0.78289 0.04800
H 	H 	0.76942 0.64627 0.82562 0.04200
C 	C 	0.80326 0.73474 0.84390 0.07600
C 	C 	0.83097 0.74418 0.80122 -0.07100
C 	C 	0.83137 0.77593 0.81388 -0.06600
C 	C 	0.80399 0.78461 0.86516 0.07700
C 	C 	0.79875 0.81059 0.96163 -0.08600
C 	C 	0.76988 0.82075 0.96282 0.07400
C 	C 	0.76150 0.85014 1.00979 -0.06600
C 	C 	0.73522 0.84685 1.08826 -0.07300
C 	C 	0.72848 0.81574 1.08382 0.08900
C 	C 	0.79574 0.70422 0.90015 -0.09400
C 	C 	0.69414 0.77548 1.10493 0.08000
C 	C 	0.66441 0.77090 1.09543 -0.07000
C 	C 	0.01075 0.94267 0.92357 -0.07100
C 	C 	0.01907 0.95739 0.76428 0.08300
C 	C 	0.04766 0.96242 0.72096 -0.09100
C 	C 	0.05391 0.99176 0.63867 0.07100
C 	C 	0.08086 1.00579 0.64963 -0.06000
Ni	Ni	-0.00530 0.00199 0.48519 1.05800
C 	C 	0.04832 0.03779 0.50508 0.10600
C 	C 	0.07721 0.03503 0.56635 -0.08100
C 	C 	0.94398 0.95863 0.67532 -0.14900
H 	H 	0.00660 0.11055 0.17639 0.05000
H 	H 	0.95531 0.09248 0.05926 0.04300
H 	H 	0.89994 -0.01344 0.14011 0.05900
H 	H 	0.89771 0.94801 0.42463 0.04800
N 	N 	-0.00806 0.03758 0.31686 -0.28700
N 	N 	0.95733 -0.01009 0.41129 -0.29400
N 	N 	0.99566 0.96874 0.66421 -0.28500
N 	N 	0.03361 0.01156 0.55125 -0.28700
H 	H 	0.96776 0.93301 1.02216 0.04200
H 	H 	0.02464 0.93448 1.03806 0.03200
H 	H 	0.10096 0.99688 0.71616 0.03600
H 	H 	0.09415 0.05213 0.54889 0.04500
C 	C 	0.00978 0.06258 0.31135 0.10100
C 	C 	-0.00247 0.08762 0.20455 -0.07500
C 	C 	0.97088 0.07831 0.14384 -0.07100
C 	C 	0.96791 0.04789 0.21422 0.09600
C 	C 	0.94277 0.03085 0.18948 -0.14400
C 	C 	0.94185 0.00004 0.26129 0.10200
C 	C 	0.91749 -0.01811 0.23848 -0.07100
C 	C 	0.91594 0.96254 0.38947 -0.07100
C 	C 	0.94020 0.96870 0.49569 0.10600
C 	C 	0.03676 0.06363 0.40259 -0.15300
C 	C 	0.97223 0.95796 0.75292 0.10000
C 	C 	0.98093 0.94309 0.91737 -0.07900
C 	C 	0.33480 0.27243 0.32966 -0.06600
C 	C 	0.30645 0.28164 0.36265 0.07400
C 	C 	0.29775 0.31123 0.41143 -0.08800
C 	C 	0.26885 0.31591 0.45939 0.07700
C 	C 	0.25933 0.34113 0.54789 -0.06800
Ni	Ni	0.24832 0.25652 0.33761 1.05800
C 	C 	0.22319 0.30904 0.50605 0.07300
C 	C 	0.23101 0.33604 0.58641 -0.06500
C 	C 	0.29772 0.20091 0.38809 -0.09600
H 	H 	0.14086 0.28780 0.28291 0.04000
H 	H 	0.14627 0.24461 0.06450 0.03700
H 	H 	0.22803 0.15219 0.07316 0.04400
H 	H 	0.27995 0.14577 0.22876 0.04400
N 	N 	0.20766 0.25745 0.29198 -0.28400
N 	N 	0.25040 0.21619 0.25178 -0.28500
N 	N 	0.28900 0.25649 0.37144 -0.28700
N 	N 	0.24657 0.29601 0.43246 -0.28400
H 	H 	0.35335 0.22553 0.30763 0.04000
H 	H 	0.35385 0.28674 0.31350 0.04000
H 	H 	0.27117 0.36146 0.57961 0.04100
H 	H 	0.21754 0.35186 0.65547 0.04300
C 	C 	0.18790 0.27755 0.35407 0.07500
C 	C 	0.16076 0.27435 0.26979 -0.06800
C 	C 	0.16393 0.25222 0.14974 -0.06600
C 	C 	0.19259 0.24118 0.16962 0.07000
C 	C 	0.20314 0.21434 0.09221 -0.09300
C 	C 	0.23017 0.20126 0.15388 0.07800
C 	C 	0.23954 0.17071 0.13349 -0.07000
C 	C 	0.26623 0.16672 0.22170 -0.06800
C 	C 	0.27199 0.19467 0.29483 0.07900
C 	C 	0.19431 0.30036 0.47389 -0.09200
C 	C 	0.30697 0.23142 0.36861 0.08300
C 	C 	0.33500 0.24036 0.33438 -0.07300
C 	C 	0.33782 0.74066 1.03345 -0.06900
C 	C 	0.30966 0.73299 1.07254 0.08200
C 	C 	0.30289 0.70803 1.18947 -0.10600
C 	C 	0.28227 0.68805 1.12495 0.08900
C 	C 	0.28149 0.65640 1.17104 -0.07000
Ni	Ni	0.25065 0.73890 0.92234 1.06000
C 	C 	0.23987 0.67388 1.03801 0.07600
C 	C 	0.25428 0.64733 1.11735 -0.06600
C 	C 	0.29376 0.78939 0.71733 -0.09400
H 	H 	0.15240 0.68669 0.86737 0.04500
H 	H 	0.14071 0.74524 0.79347 0.04400
H 	H 	0.20554 0.84199 0.66732 0.04900
H 	H 	0.26122 0.84548 0.59534 0.04300
N 	N 	0.21072 0.73033 0.88893 -0.28900
N 	N 	0.24431 0.77915 0.81137 -0.29100
N 	N 	0.29032 0.74745 0.95155 -0.28600
N 	N 	0.25795 0.69831 1.02910 -0.28600
H 	H 	0.35397 0.77079 0.81466 0.03600
H 	H 	0.35779 0.73043 1.09576 0.03700
H 	H 	0.29812 0.64179 1.24384 0.04700
H 	H 	0.24532 0.62448 1.14800 0.03600
C 	C 	0.19761 0.70248 0.91721 0.07700
C 	C 	0.16835 0.70498 0.86661 -0.06100
C 	C 	0.16231 0.73599 0.82826 -0.08100
C 	C 	0.18853 0.75124 0.84653 0.10400
C 	C 	0.19183 0.78359 0.83473 -0.15500
C 	C 	0.21883 0.79558 0.79400 0.10600
C 	C 	0.22241 0.82456 0.70634 -0.08000
C 	C 	0.25114 0.82568 0.66238 -0.06300
C 	C 	0.26416 0.79753 0.72860 0.07600
C 	C 	0.20976 0.67772 1.02717 -0.09000
C 	C 	0.30606 0.76584 0.83966 0.07400
C 	C 	0.33564 0.76089 0.88255 -0.06800
C 	C 	1.00764 0.61137 0.73869 -0.06000
C 	C 	0.99260 0.58373 0.72627 0.10400
C 	C 	0.96562 0.57824 0.80181 -0.14700
C 	C 	0.94940 0.55322 0.74671 0.10300
C 	C 	0.91927 0.55309 0.72843 -0.08000
Ni	Ni	0.00028 0.51884 0.63820 1.05800
C 	C 	0.93797 0.50852 0.64772 0.06700
C 	C 	0.91216 0.52544 0.66091 -0.06100
C 	C 	0.06022 0.56062 0.56961 -0.13800
H 	H 	0.95613 0.41038 0.68731 0.04600
H 	H 	0.01286 0.40104 0.69941 0.05000
H 	H 	0.08327 0.46862 0.35286 0.05300
H 	H 	0.08873 0.52871 0.28459 0.03800
N 	N 	0.99282 0.47557 0.63601 -0.28600
N 	N 	0.03836 0.51136 0.57046 -0.29500
N 	N 	0.00874 0.56202 0.64814 -0.28500
N 	N 	0.96112 0.52642 0.69072 -0.28700
H 	H 	0.05219 0.62286 0.66851 0.04500
H 	H 	1.00030 0.63279 0.79368 0.04900
H 	H 	0.90349 0.57137 0.74555 0.04100
H 	H 	0.89003 0.51904 0.63097 0.03300
C 	C 	0.96695 0.46083 0.63919 0.07600
C 	C 	0.97171 0.42858 0.66790 -0.06000
C 	C 	0.00124 0.42337 0.68153 -0.08100
C 	C 	0.01336 0.45230 0.65841 0.10300
C 	C 	0.04287 0.45643 0.63711 -0.15300
C 	C 	0.05043 0.48352 0.54180 0.11400
C 	C 	0.07184 0.48667 0.41796 -0.08200
C 	C 	0.07442 0.51812 0.38122 -0.07000
C 	C 	0.05538 0.53268 0.48993 0.09400
C 	C 	0.93966 0.47624 0.62014 -0.08700
C 	C 	0.03513 0.57578 0.62474 0.09300
C 	C 	0.03461 0.60627 0.67455 -0.06800
C 	C 	0.83741 0.21678 0.34074 -0.05900
C 	C 	0.81476 0.21894 0.21065 0.07200
C 	C 	0.80978 0.19737 0.08127 -0.08100
C 	C 	0.78549 0.20212 -0.03622 0.07800
C 	C 	0.77867 0.18387 -0.17722 -0.06100
Ni	Ni	0.76068 0.25525 0.13285 1.05800
C 	C 	0.73955 0.20858 -0.09481 0.10600
C 	C 	0.74925 0.18718 -0.21041 -0.08100
C 	C 	0.81159 0.29357 0.34760 -0.15500
H 	H 	0.65524 0.22859 0.06080 0.04400
H 	H 	0.65455 0.28605 0.16407 0.04500
H 	H 	0.74411 0.37001 0.21255 0.03400
H 	H 	0.79723 0.35758 0.33283 0.04300
N 	N 	0.72032 0.26073 0.07307 -0.28500
N 	N 	0.76095 0.29430 0.23858 -0.28400
N 	N 	0.79944 0.24630 0.21646 -0.28800
N 	N 	0.76190 0.21933 0.00319 -0.28800
H 	H 	0.85277 0.25086 0.52276 0.04700
H 	H 	0.85395 0.19879 0.37160 0.03900
H 	H 	0.79287 0.16875 -0.24569 0.04500
H 	H 	0.73635 0.17383 -0.30101 0.05300
C 	C 	0.70246 0.23668 0.03988 0.09700
C 	C 	0.67385 0.24357 0.07367 -0.07600
C 	C 	0.67357 0.27375 0.12270 -0.06400
C 	C 	0.70221 0.28379 0.12082 0.07600
C 	C 	0.71123 0.31382 0.15456 -0.08400
C 	C 	0.74088 0.31808 0.20321 0.06400
C 	C 	0.75337 0.34674 0.23315 -0.06000
C 	C 	0.78136 0.34064 0.29462 -0.08300
C 	C 	0.78544 0.30877 0.29574 0.10000
C 	C 	0.71156 0.20962 -0.03408 -0.14800
C 	C 	0.81387 0.26166 0.34192 0.10500
C 	C 	0.83682 0.24394 0.42315 -0.07900
C 	C 	0.47895 0.42391 0.05871 -0.07000
C 	C 	0.49567 0.45057 0.06413 0.09700
C 	C 	0.52529 0.45100 0.02543 -0.14400
C 	C 	0.53908 0.47963 -0.00147 0.09900
C 	C 	0.56376 0.48377 -0.10075 -0.07400
Ni	Ni	0.49184 0.51642 0.14518 1.05800
C 	C 	0.54569 0.52952 -0.03572 0.09000
C 	C 	0.56732 0.51549 -0.12775 -0.06900
C 	C 	0.42724 0.48096 1.16025 -0.15400
H 	H 	0.55074 0.61534 0.18736 0.04600
H 	H 	0.50775 0.62229 0.39625 0.06400
H 	H 	0.40254 0.57321 1.36928 0.04100
H 	H 	0.38295 0.52146 1.26125 0.04500
N 	N 	0.50591 0.55559 0.20547 -0.29200
N 	N 	0.45483 0.52655 1.23593 -0.29200
N 	N 	0.47884 0.47599 0.09591 -0.28700
N 	N 	0.52809 0.50769 0.04227 -0.28500
H 	H 	0.43235 0.41776 0.08624 0.04500
H 	H 	0.48592 0.40028 0.03651 0.05100
H 	H 	0.57688 0.46586 -0.15673 0.04400
H 	H 	0.58442 0.52670 -0.20167 0.04300
C 	C 	0.52979 0.57004 0.14215 0.09600
C 	C 	0.53456 0.59794 0.21975 -0.06000
C 	C 	0.51231 0.60135 0.33108 -0.08200
C 	C 	0.49399 0.57636 0.31152 0.11800
C 	C 	0.46439 0.57783 1.34847 -0.17000
C 	C 	0.44622 0.55347 1.30745 0.10300
C 	C 	0.41617 0.55478 1.32422 -0.07800
C 	C 	0.40571 0.52789 1.26590 -0.07400
C 	C 	0.42952 0.51106 1.21354 0.10100
C 	C 	0.54424 0.56134 -0.00629 -0.13000
C 	C 	0.45152 0.46451 1.11017 0.09800
C 	C 	0.45097 0.43293 0.08315 -0.07100
C 	C 	0.59466 0.06558 1.10758 -0.04900
C 	C 	0.60996 0.07631 0.93531 -0.04900
C 	C 	0.59387 0.08839 0.77782 0.07500
C 	C 	0.56097 0.08779 0.75697 -0.19700
C 	C 	0.60865 0.10168 0.63289 -0.11900
C 	C 	0.63875 0.10599 0.64229 0.06500
C 	C 	0.65210 0.12322 0.48388 -0.19400
C 	C 	0.65548 0.09502 0.79866 -0.02700
C 	C 	0.68812 0.10217 0.81599 -0.12800
C 	C 	0.69471 0.12492 -0.04211 0.11000
C 	C 	0.69045 0.15728 -0.08451 -0.14100
C 	C 	0.70067 0.17893 0.03473 0.11800
C 	C 	0.71143 0.16807 0.20663 -0.17300
C 	C 	0.71643 0.13625 0.24946 0.21000
O 	O 	0.73052 0.12667 0.41371 -0.31100
C 	C 	0.70917 0.11479 0.12214 -0.17900
C 	C 	0.64121 0.07792 0.93972 0.04100
C 	C 	0.65909 0.06119 0.09470 -0.18000
H 	H 	0.59113 0.08690 0.17815 0.03300
H 	H 	0.60923 0.05172 1.20560 0.03500
H 	H 	0.55241 0.10036 1.63022 0.06700
H 	H 	0.55353 0.06329 0.75379 0.06000
H 	H 	0.55106 0.09973 0.86661 0.07100
H 	H 	0.59617 0.11017 1.51236 0.05400
H 	H 	0.63599 0.12869 1.37040 0.06600
H 	H 	0.66989 0.10882 0.43339 0.06800
H 	H 	0.66078 0.14582 0.52395 0.06800
H 	H 	0.69655 0.11269 0.68961 0.06100
H 	H 	0.70142 0.08023 -0.16040 0.05000
H 	H 	0.68245 0.16564 0.78229 0.06300
H 	H 	0.71955 0.18455 0.29919 0.06700
H 	H 	0.73456 0.10328 0.42972 0.13400
H 	H 	0.71561 0.09046 0.15011 0.06600
H 	H 	0.68223 0.05771 0.06742 0.06000
H 	H 	0.65706 0.07398 0.21751 0.06100
H 	H 	0.65199 0.03691 0.12116 0.05900
C 	C 	0.70790 0.80325 0.38494 -0.03600
C 	C 	0.69212 0.83236 0.44471 -0.05000
C 	C 	0.70811 0.85950 0.48286 0.07100
C 	C 	0.74072 0.85853 0.52353 -0.19400
C 	C 	0.69336 0.88822 0.49157 -0.11000
C 	C 	0.66299 0.89058 0.47462 0.06200
C 	C 	0.64864 0.92274 -0.53000 -0.18500
C 	C 	0.64654 0.86305 0.46564 -0.01200
C 	C 	0.61341 0.86603 0.44903 -0.14500
C 	C 	0.60333 0.87580 0.26014 0.12600
C 	C 	0.58448 0.90162 0.22296 -0.15900
C 	C 	0.57401 0.90951 0.04654 0.13400
C 	C 	0.58177 0.89095 -0.09173 -0.18300
C 	C 	0.59992 0.86459 -0.05319 0.22600
O 	O 	0.60534 0.84424 -0.18523 -0.31100
C 	C 	0.61130 0.85781 0.12101 -0.19200
C 	C 	0.66121 0.83340 0.45975 0.04200
C 	C 	0.64402 0.80342 0.48547 -0.17900
H 	H 	0.70089 0.78134 0.45576 0.01700
H 	H 	0.73115 0.80286 0.43167 0.01500
H 	H 	0.74545 0.84319 0.64626 0.06200
H 	H 	0.75311 0.84951 0.41400 0.06500
H 	H 	0.74923 0.88205 1.54767 0.06300
H 	H 	0.70574 0.90920 0.50959 0.05200
H 	H 	0.66498 0.94141 -0.51892 0.06100
H 	H 	0.63381 0.92432 -0.41713 0.06400
H 	H 	0.63614 0.92773 0.34084 0.06600
H 	H 	0.60541 0.88282 -0.45713 0.07100
H 	H 	0.60239 0.84406 0.48782 0.07200
H 	H 	0.57767 0.91515 0.33146 0.06200
H 	H 	0.57300 0.89640 0.77281 0.07600
H 	H 	0.61707 0.82482 -0.13948 0.14000
H 	H 	0.62593 0.83798 0.14734 0.08000
H 	H 	0.63676 0.80078 0.62491 0.06400
H 	H 	0.62472 0.80374 0.39205 0.06100
H 	H 	0.65597 0.78152 0.46491 0.06100
C 	C 	0.82650 0.16599 0.09484 -0.05300
C 	C 	0.84145 0.15633 0.92837 -0.04600
C 	C 	0.86285 0.17561 0.84876 0.07200
C 	C 	0.86895 0.20810 0.90720 -0.19100
C 	C 	0.87961 0.16422 0.71421 -0.11400
C 	C 	0.87827 0.13295 0.67134 0.06600
C 	C 	0.89788 0.12210 0.53025 -0.19600
C 	C 	0.85870 0.11255 0.75949 -0.02500
C 	C 	0.86226 0.07703 0.74948 -0.12700
C 	C 	0.87388 0.06200 -0.07171 0.10800
C 	C 	0.90421 0.05729 -0.03074 -0.14100
C 	C 	0.91381 0.04699 0.14523 0.11600
C 	C 	0.89337 0.04530 0.28118 -0.17400
C 	C 	0.86358 0.04638 0.23762 0.21700
O 	O 	0.84392 0.03974 0.37223 -0.31000
C 	C 	0.85404 0.05297 0.05944 -0.17500
C 	C 	0.83762 0.12558 0.87030 0.04500
C 	C 	0.81077 0.10741 -0.07648 -0.18200
H 	H 	0.84410 0.16454 0.19973 0.03700
H 	H 	0.81081 0.14865 0.14570 0.04000
H 	H 	0.88735 0.21903 0.83545 0.06300
H 	H 	0.84953 0.22376 0.87728 0.06500
H 	H 	0.87503 0.20683 1.05289 0.06800
H 	H 	0.89510 0.17958 0.64837 0.05300
H 	H 	0.90996 0.14173 1.46554 0.06900
H 	H 	0.88433 0.11177 0.42389 0.07000
H 	H 	0.91419 0.10452 0.59085 0.06400
H 	H 	0.87730 0.07048 0.64563 0.05800
H 	H 	0.84133 0.06666 0.70700 0.06100
H 	H 	0.92002 0.06059 0.86573 0.05700
H 	H 	0.90067 0.03875 0.41854 0.07600
H 	H 	0.82272 1.04114 0.32779 0.13900
H 	H 	0.83108 0.05149 0.02446 0.07400
H 	H 	0.81243 0.09887 0.06705 0.06300
H 	H 	0.79086 0.12250 -0.09588 0.06700
H 	H 	0.80634 0.08758 -0.16016 0.06200
C 	C 	0.30466 0.18242 0.56682 -0.04500
C 	C 	0.32276 0.15233 0.55455 -0.04600
C 	C 	0.30877 0.12296 0.56888 0.07200
C 	C 	0.27711 0.11961 0.61498 -0.19700
C 	C 	0.32488 0.09543 0.55286 -0.11400
C 	C 	0.35487 0.09545 -0.46947 0.06600
C 	C 	0.37036 0.06411 -0.47748 -0.19100
C 	C 	0.36999 0.12398 0.52972 -0.02100
C 	C 	0.40330 0.12284 -0.47193 -0.13600
C 	C 	0.41451 0.11691 0.34632 0.11600
C 	C 	0.43106 0.08970 0.32242 -0.15400
C 	C 	0.44478 0.08611 0.16072 0.12600
C 	C 	0.44239 0.11002 0.02318 -0.18200
C 	C 	0.42634 0.13729 0.04616 0.21800
O 	O 	0.42645 0.16170 -0.08700 -0.31100
C 	C 	0.41178 0.14038 0.20580 -0.18200
C 	C 	0.35398 0.15257 0.54742 0.04500
C 	C 	0.37087 0.18171 0.58377 -0.18500
H 	H 	0.31483 0.19714 0.66710 0.02900
H 	H 	0.28360 0.17764 0.62966 0.02500
H 	H 	0.27375 0.12806 0.74964 0.06300
H 	H 	0.26251 0.13292 0.51562 0.06500
H 	H 	0.27014 0.09492 0.61807 0.06200
H 	H 	0.31406 0.07319 0.56468 0.05100
H 	H 	0.35500 0.04449 -0.46311 0.06300
H 	H 	0.38712 0.06039 -0.36646 0.06300
H 	H 	0.38049 0.06249 -0.60843 0.06700
H 	H 	0.41169 0.10473 -0.36869 0.05800
H 	H 	0.41368 0.14427 -0.42859 0.06600
H 	H 	0.43387 0.07167 0.43085 0.06000
H 	H 	0.45393 0.10796 -0.09925 0.08100
H 	H 	0.41634 0.18147 -0.05213 0.13400
H 	H 	0.39937 0.16159 0.22316 0.07200
H 	H 	0.38193 0.17798 0.71735 0.07200
H 	H 	0.38698 0.18701 0.47985 0.06200
H 	H 	0.35772 0.20312 0.59197 0.06500
C 	C 	0.07135 0.93822 0.78873 -0.04700
C 	C 	0.07122 0.90780 0.68953 -0.04600
C 	C 	0.08014 0.90867 0.50971 0.07200
C 	C 	0.08331 0.93901 1.39824 -0.19000
C 	C 	0.08517 0.88079 1.42791 -0.11300
C 	C 	0.08279 0.85160 0.51968 0.06900
C 	C 	0.08559 0.82243 0.41761 -0.18900
C 	C 	0.07647 0.84994 0.70293 -0.02500
C 	C 	0.08600 0.82023 0.81635 -0.13300
C 	C 	0.11736 0.82309 -0.11855 0.12000
C 	C 	0.13983 0.80574 0.80979 -0.15100
C 	C 	0.16828 0.80525 0.88749 0.12200
C 	C 	0.17436 0.82419 0.03010 -0.18000
C 	C 	0.15245 0.84323 0.09408 0.21700
O 	O 	0.15798 0.86190 0.23685 -0.30300
C 	C 	0.12428 0.84296 0.01695 -0.17700
C 	C 	0.06712 0.87780 0.78143 0.04000
C 	C 	0.04996 0.87547 -0.04947 -0.17900
H 	H 	0.06991 0.93386 0.93493 0.03100
H 	H 	0.09349 0.94767 0.77666 0.03500
H 	H 	0.06164 0.95077 1.37600 0.05500
H 	H 	0.09158 0.93520 1.26407 0.06200
H 	H 	0.09902 0.95434 1.46413 0.06700
H 	H 	0.09191 0.88188 1.29161 0.05700
H 	H 	0.08379 0.82797 1.27124 0.06300
H 	H 	0.06733 0.80651 0.44796 0.05900
H 	H 	0.10668 0.80988 0.45060 0.06800
H 	H 	0.08383 0.79914 0.73939 0.05000
H 	H 	0.07242 0.81439 -0.06788 0.05000
H 	H 	0.13512 0.79271 0.69434 0.06200
H 	H 	0.19606 0.82372 0.09354 0.06900
H 	H 	0.17906 0.86083 0.28379 0.13800
H 	H 	0.10772 0.85831 0.06273 0.08100
H 	H 	0.04736 0.85147 0.00965 0.05800
H 	H 	0.05996 0.88894 0.05639 0.05800
H 	H 	0.02729 0.88404 -0.08297 0.06400
C 	C 	0.31163 0.80415 0.56658 -0.04600
C 	C 	0.31945 0.83917 0.56361 -0.05000
C 	C 	0.31243 0.85930 0.40712 0.07300
C 	C 	0.29244 0.85006 0.25439 -0.18500
C 	C 	0.32445 0.88912 1.38946 -0.11900
C 	C 	0.34599 0.89853 1.51014 0.06200
C 	C 	0.35815 0.93071 1.47416 -0.19100
C 	C 	0.35593 0.87771 0.65568 -0.02200
C 	C 	0.38827 0.87782 0.71734 -0.12300
C 	C 	0.39656 0.89152 0.89366 0.10700
C 	C 	0.41146 0.92007 0.89162 -0.14500
C 	C 	0.42654 0.92906 1.04629 0.11800
C 	C 	0.42537 0.91042 1.20711 -0.18300
C 	C 	0.41218 0.88138 1.20932 0.20800
O 	O 	0.41636 0.86063 0.36082 -0.29500
C 	C 	0.39831 0.87192 1.05278 -0.18000
C 	C 	0.33951 0.85034 0.69491 0.04600
C 	C 	0.34336 0.83438 0.87915 -0.18600
H 	H 	0.33229 0.79074 0.55697 0.03200
H 	H 	0.29924 0.79878 0.44306 0.02900
H 	H 	0.30058 0.82836 1.19879 0.05300
H 	H 	0.26981 0.84701 0.29903 0.06000
H 	H 	0.29142 0.86810 0.14033 0.06400
H 	H 	0.31814 0.90489 1.27401 0.05300
H 	H 	0.33992 0.94834 1.46121 0.06100
H 	H 	0.36965 0.93164 1.34629 0.06700
H 	H 	0.37317 0.93749 1.58349 0.06300
H 	H 	0.40071 0.89009 1.61077 0.06200
H 	H 	0.39715 0.85340 0.72175 0.06100
H 	H 	0.41472 0.93327 0.76574 0.06000
H 	H 	0.43783 0.91655 0.32535 0.08300
H 	H 	0.40660 0.83978 1.34970 0.12800
H 	H 	0.39178 0.84802 1.05318 0.06900
H 	H 	0.34463 0.85227 0.97891 0.06500
H 	H 	0.32408 0.82128 0.91889 0.06900
H 	H 	0.36322 0.81912 0.88888 0.06200
C 	C 	0.18592 0.20050 -0.06334 -0.04600
C 	C 	0.17313 0.16756 0.96374 -0.04900
C 	C 	0.18075 0.14411 0.84659 0.06700
C 	C 	0.20520 0.14777 0.71671 -0.19200
C 	C 	0.16369 0.11741 0.83774 -0.11200
C 	C 	0.13704 0.11498 0.92201 0.06500
C 	C 	0.11840 0.08708 0.88898 -0.19300
C 	C 	0.12811 0.13873 1.03187 -0.02600
C 	C 	0.09543 0.14426 1.05902 -0.13000
C 	C 	0.08330 0.13144 1.23416 0.11200
C 	C 	0.06941 0.10228 0.24503 -0.14800
C 	C 	0.05320 0.09316 0.39458 0.12400
C 	C 	0.05041 0.11328 0.53274 -0.18000
C 	C 	0.06309 0.14265 0.52128 0.21300
O 	O 	1.05812 0.16314 0.65477 -0.30500
C 	C 	0.07927 0.15169 1.37189 -0.17900
C 	C 	0.14841 0.16238 1.07177 0.04400
C 	C 	0.14374 0.18083 1.23281 -0.18300
H 	H 	0.16754 0.21605 -0.11530 0.03200
H 	H 	0.20050 0.20220 0.82249 0.02500
H 	H 	0.19760 0.16343 0.59885 0.05900
H 	H 	0.22498 0.15783 0.77780 0.05800
H 	H 	0.21210 0.12488 -0.33111 0.06100
H 	H 	0.16982 0.09958 0.74969 0.05200
H 	H 	0.12997 0.06971 0.81200 0.06300
H 	H 	0.09808 0.09431 1.81030 0.07000
H 	H 	0.11308 0.07488 1.01860 0.06600
H 	H 	0.08226 0.13509 0.94763 0.06700
H 	H 	0.09040 0.16984 1.04055 0.05900
H 	H 	0.06937 0.08752 1.13339 0.06300
H 	H 	0.03731 0.10665 0.64597 0.08000
H 	H 	1.06793 0.18400 0.63412 0.13800
H 	H 	0.08720 0.17528 1.35867 0.06900
H 	H 	0.13713 0.16492 1.34622 0.06600
H 	H 	0.16416 0.19065 0.28519 0.06800
H 	H 	0.12691 0.19955 1.20201 0.06200
C 	C 	0.16960 0.31736 0.55997 -0.04600
C 	C 	0.16507 0.35265 0.51308 -0.04900
C 	C 	0.17481 0.36857 0.35325 0.07600
C 	C 	0.18472 0.35216 1.19319 -0.19600
C 	C 	0.17438 0.40131 0.33764 -0.11400
C 	C 	0.16504 0.41905 0.47510 0.06600
C 	C 	0.16678 0.45424 0.44934 -0.19200
C 	C 	0.15383 0.40381 0.63109 -0.02700
C 	C 	0.14731 0.42233 -0.20694 -0.12900
C 	C 	0.11563 0.42294 -0.15969 0.11500
C 	C 	0.09410 0.43420 0.71260 -0.14700
C 	C 	0.06500 0.43879 0.76055 0.12600
C 	C 	0.05783 0.43051 -0.06105 -0.18300
C 	C 	0.07902 0.41795 0.06579 0.21700
O 	O 	0.07212 0.40982 0.24262 -0.30500
C 	C 	0.10783 0.41458 0.01598 -0.18000
C 	C 	0.15149 0.37064 0.64155 0.04300
C 	C 	0.13300 0.35502 -0.21510 -0.18200
H 	H 	0.14829 0.30605 0.54185 0.03300
H 	H 	0.17533 0.31362 0.70586 0.03100
H 	H 	0.18526 0.36840 1.07155 0.06000
H 	H 	0.20730 0.34272 1.21530 0.06700
H 	H 	0.16935 0.33360 1.16065 0.06700
H 	H 	0.18218 0.41331 1.21707 0.04900
H 	H 	0.17423 0.46200 0.31429 0.06600
H 	H 	0.18267 0.46294 0.54915 0.07000
H 	H 	0.14492 0.46518 0.46366 0.07300
H 	H 	0.15391 0.44704 -0.22456 0.05700
H 	H 	0.16120 0.41237 -0.09143 0.05000
H 	H 	0.10060 0.43961 0.57822 0.07600
H 	H 	0.03594 0.43483 0.98261 0.06800
H 	H 	0.05101 0.41451 0.26851 0.13900
H 	H 	0.12428 0.40601 0.11617 0.08300
H 	H 	0.14106 0.36045 -0.08011 0.06400
H 	H 	0.11008 0.36364 -0.23740 0.07300
H 	H 	0.13184 0.32929 -0.21558 0.06100
C 	C 	0.31932 0.33801 0.41801 -0.04700
C 	C 	0.33705 0.34057 0.59466 -0.05000
C 	C 	0.36141 0.32020 0.63023 0.07500
C 	C 	0.35771 0.28732 0.70803 -0.19300
C 	C 	0.38957 0.33250 -0.37490 -0.11700
C 	C 	0.39327 0.36506 -0.39483 0.06500
C 	C 	0.42337 0.37766 -0.42402 -0.19300
C 	C 	0.36872 0.38506 0.62534 -0.02500
C 	C 	0.37168 0.42029 0.62057 -0.12900
C 	C 	0.37377 0.43381 0.43087 0.11100
C 	C 	0.39861 0.45001 0.37952 -0.15100
C 	C 	0.40041 0.46363 0.20494 0.12800
C 	C 	0.37649 0.46240 0.08244 -0.18400
C 	C 	0.35125 0.44652 0.13412 0.21300
O 	O 	0.32644 0.44627 0.01983 -0.30900
C 	C 	0.35032 0.43164 0.30602 -0.17200
C 	C 	0.34095 0.37145 0.64365 0.04400
C 	C 	0.31665 0.38793 0.73180 -0.18700
H 	H 	0.33472 0.33680 0.30771 0.03600
H 	H 	0.30725 0.36049 0.37922 0.03600
H 	H 	0.36704 0.28527 -0.15218 0.06300
H 	H 	0.33426 0.28140 0.71293 0.06700
H 	H 	0.36943 0.27021 0.63044 0.06500
H 	H 	0.40851 0.31678 -0.36021 0.05300
H 	H 	0.43973 0.35853 -0.43534 0.06800
H 	H 	0.43064 0.39142 -0.31072 0.06700
H 	H 	0.42330 0.39255 -0.55129 0.06900
H 	H 	0.39067 0.42641 -0.29278 0.05300
H 	H 	0.35267 0.43197 0.67592 0.05300
H 	H 	0.41669 0.45224 0.47567 0.06200
H 	H 	0.37713 0.47426 0.95005 0.07000
H 	H 	0.32865 0.45828 -0.10006 0.13500
H 	H 	0.33095 0.41913 0.34395 0.08000
H 	H 	0.32578 0.39958 0.84821 0.07700
H 	H 	0.30493 0.40538 0.63633 0.06400
H 	H 	0.30135 0.37091 0.79221 0.06500
C 	C 	0.81562 0.81102 1.14363 -0.05000
C 	C 	0.84772 0.82031 0.13785 -0.04500
C 	C 	0.87008 0.79673 0.16214 0.07200
C 	C 	0.86428 0.76327 0.22583 -0.19400
C 	C 	0.89910 0.80457 0.13971 -0.11300
C 	C 	0.90758 0.83566 0.12002 0.06400
C 	C 	0.93988 0.84148 0.10952 -0.19100
C 	C 	0.88629 0.86020 0.12288 -0.02600
C 	C 	0.89599 0.89337 0.15758 -0.12600
C 	C 	0.89243 0.91751 0.00022 0.11000
C 	C 	0.91565 0.92233 -0.11515 -0.14700
C 	C 	0.91753 0.95049 0.77838 0.12300
C 	C 	0.89387 0.97212 0.77037 -0.18100
C 	C 	0.86935 0.96628 -0.12784 0.21500
O 	O 	0.84583 -0.01235 0.86740 -0.30000
C 	C 	0.86946 0.93995 -0.00720 -0.17500
C 	C 	0.85605 0.85242 0.12561 0.04600
C 	C 	0.83330 0.87850 0.12730 -0.18400
H 	H 	0.80399 0.82460 1.24077 0.03000
H 	H 	0.81355 0.78745 0.21186 0.02800
H 	H 	0.85663 0.76259 0.36479 0.06300
H 	H 	0.84764 0.75307 0.13902 0.06700
H 	H 	0.88418 0.74803 1.22681 0.05900
H 	H 	0.91572 0.78608 0.14902 0.05200
H 	H 	0.95275 0.81941 0.09982 0.06100
H 	H 	0.94822 0.85214 -0.76810 0.06200
H 	H 	0.94413 0.85664 -0.01178 0.06300
H 	H 	0.91902 0.89367 0.20761 0.05200
H 	H 	0.88458 0.90142 0.27433 0.05300
H 	H 	0.93319 0.90514 0.88658 0.06300
H 	H 	0.89481 0.99394 0.68839 0.07700
H 	H 	0.84799 0.00662 -0.21958 0.14400
H 	H 	0.85233 0.93850 0.08759 0.08000
H 	H 	0.83852 0.89448 0.23330 0.06200
H 	H 	0.83115 0.89123 0.99312 0.06900
H 	H 	0.81170 0.87081 0.16378 0.06600
C 	C 	0.67033 0.71275 0.63606 -0.04800
C 	C 	0.66630 0.68001 0.56563 -0.04800
C 	C 	0.68856 0.66524 0.47423 0.08000
C 	C 	0.71321 0.68248 0.38563 -0.18400
C 	C 	0.68793 0.63282 1.46460 -0.12200
C 	C 	0.66376 0.61559 1.51967 0.05000
C 	C 	0.66627 0.58041 1.52003 -0.18300
C 	C 	0.63714 0.63171 0.55128 -0.02100
C 	C 	0.60801 0.61458 0.51954 -0.10800
C 	C 	0.58331 0.61661 0.65004 0.09200
C 	C 	0.57928 0.59197 0.78341 -0.12500
C 	C 	0.55151 0.58722 0.85697 0.08600
C 	C 	0.52877 0.60907 -0.19347 -0.14200
C 	C 	0.53325 0.63512 0.69105 0.18600
O 	O 	0.51027 0.65693 -0.34771 -0.28000
C 	C 	0.55961 0.63754 0.60427 -0.16400
C 	C 	0.63861 0.66499 0.56574 0.04400
C 	C 	0.61130 0.68511 0.53389 -0.18000
H 	H 	0.64911 0.72214 0.67427 0.03400
H 	H 	0.67630 0.72928 0.52354 0.02800
H 	H 	0.71130 0.68024 1.23863 0.05500
H 	H 	0.71327 0.70779 0.40652 0.05600
H 	H 	0.73451 0.67184 0.43554 0.06100
H 	H 	0.70656 0.62090 1.41269 0.05000
H 	H 	0.68947 0.57232 1.51841 0.05500
H 	H 	0.65462 0.57235 1.39933 0.05800
H 	H 	0.65706 0.56938 1.64351 0.05400
H 	H 	0.61183 0.58924 1.50609 0.03800
H 	H 	0.59928 0.62280 0.38333 0.05100
H 	H 	0.59745 0.57627 0.82361 0.05600
H 	H 	0.50723 0.60606 -0.14058 0.07400
H 	H 	0.51567 0.67571 0.57075 0.13300
H 	H 	0.56040 0.65456 0.49188 0.06600
H 	H 	0.59935 0.67759 0.41346 0.06300
H 	H 	0.59781 0.68393 0.65379 0.06600
H 	H 	0.61572 0.70988 0.49417 0.06100
C 	C 	0.68990 0.34178 0.11030 -0.04500
C 	C 	0.66392 0.34534 0.23188 -0.04800
C 	C 	0.66934 0.35364 0.41051 0.06800
C 	C 	0.69934 0.35317 -0.50015 -0.18500
C 	C 	0.64647 0.36397 -0.49060 -0.11200
C 	C 	0.61777 0.36575 0.44108 0.06200
C 	C 	0.59499 0.37755 -0.43943 -0.19500
C 	C 	0.61074 0.35464 0.27126 -0.02700
C 	C 	0.57861 0.34892 0.21937 -0.12700
C 	C 	0.56451 0.37111 0.07167 0.11000
C 	C 	0.55733 0.40260 0.10095 -0.14200
C 	C 	0.53950 0.42112 -0.02459 0.11800
C 	C 	0.52996 0.40835 0.81601 -0.17900
C 	C 	0.53601 0.37708 0.78777 0.21000
O 	O 	0.52368 0.36451 0.63543 -0.30700
C 	C 	0.55320 0.35855 0.91536 -0.18400
C 	C 	0.63406 0.34497 0.16367 0.04200
C 	C 	0.62641 0.33528 0.97653 -0.18500
H 	H 	0.70129 0.36421 1.10730 0.02700
H 	H 	0.68317 0.34101 -0.03221 0.03200
H 	H 	0.69887 0.35878 -0.35751 0.05800
H 	H 	0.70957 0.32945 0.49961 0.06400
H 	H 	0.71267 0.37132 0.43263 0.06200
H 	H 	0.65101 0.37077 -0.35596 0.05000
H 	H 	0.60468 0.39155 -0.33336 0.06500
H 	H 	0.58409 0.35702 -0.37713 0.06900
H 	H 	0.57880 0.39327 -0.51403 0.07100
H 	H 	0.56452 0.34940 0.33580 0.05700
H 	H 	0.57671 0.32416 0.18582 0.05000
H 	H 	0.56363 0.41212 0.22569 0.06400
H 	H 	0.51549 0.42191 0.72072 0.07900
H 	H 	0.52796 0.34126 0.62999 0.13300
H 	H 	0.55709 0.33406 0.89425 0.06600
H 	H 	0.60765 0.31931 0.97592 0.06000
H 	H 	0.62079 0.35646 0.88971 0.06300
H 	H 	0.64351 0.32183 0.91377 0.06200
C 	C 	0.91223 0.45841 0.56469 -0.04800
C 	C 	0.90264 0.43109 0.69159 -0.05100
C 	C 	0.89248 0.43723 -0.13715 0.07500
C 	C 	0.89820 0.46730 -0.05015 -0.19200
C 	C 	0.87560 0.41527 -0.04512 -0.11700
C 	C 	0.86932 0.38664 -0.11318 0.06700
C 	C 	0.84584 0.36810 -0.02211 -0.19200
C 	C 	0.88476 0.37685 -0.26034 -0.02600
C 	C 	0.88978 0.34174 0.72118 -0.12800
C 	C 	0.87875 0.32997 0.54614 0.10700
C 	C 	0.84884 0.32450 0.51446 -0.14800
C 	C 	0.83962 0.31027 0.35892 0.12200
C 	C 	0.86001 0.30385 0.22987 -0.18700
C 	C 	0.88972 0.30783 0.26450 0.21700
O 	O 	0.91038 0.29768 1.14827 -0.30300
C 	C 	0.89900 0.32003 0.42401 -0.17800
C 	C 	0.90030 0.39982 0.63458 0.04100
C 	C 	0.91549 0.38985 0.47024 -0.18300
H 	H 	0.89283 0.47398 0.54290 0.03200
H 	H 	0.91506 0.45200 0.42645 0.03100
H 	H 	0.89166 0.46629 0.09136 0.05900
H 	H 	0.92188 0.47188 -0.04653 0.06800
H 	H 	0.88516 0.48660 0.87850 0.06400
H 	H 	0.86660 0.42074 0.08113 0.05200
H 	H 	0.82506 0.38209 -0.03426 0.06200
H 	H 	0.85194 0.36411 0.12256 0.06900
H 	H 	0.84100 0.34566 -0.08041 0.06200
H 	H 	0.88066 0.32697 -0.16857 0.05400
H 	H 	0.91356 0.33682 0.74086 0.05800
H 	H 	0.83339 0.32880 0.61635 0.05900
H 	H 	0.85281 0.29299 1.10922 0.06900
H 	H 	0.90175 0.28549 0.04810 0.13400
H 	H 	0.92219 0.32130 0.45307 0.08100
H 	H 	0.89915 0.38304 0.36740 0.06900
H 	H 	0.92975 0.40726 0.40562 0.06400
H 	H 	0.93081 0.37026 0.51056 0.06500
C 	C 	0.81198 0.68925 1.06760 -0.05600
C 	C 	0.82433 0.65594 0.06375 -0.04000
C 	C 	0.80931 0.62984 0.14220 0.06500
C 	C 	0.77803 0.63106 0.19904 -0.18400
C 	C 	0.82455 0.60133 0.18354 -0.11300
C 	C 	0.85506 0.59970 0.18390 0.06500
C 	C 	0.87042 0.57026 0.26363 -0.19900
C 	C 	0.87041 0.62656 0.12713 -0.02900
C 	C 	0.89847 0.63419 0.22886 -0.12600
C 	C 	0.92717 0.62235 0.16548 0.10500
C 	C 	0.93082 0.60718 0.00575 -0.13900
C 	C 	0.95857 0.59452 0.96779 0.11400
C 	C 	0.98178 0.59742 1.09437 -0.19200
C 	C 	0.97884 0.61589 0.23867 0.22300
O 	O 	0.00291 0.62336 0.34435 -0.30900
C 	C 	0.95169 0.62781 0.27536 -0.18000
C 	C 	0.85473 0.65199 0.03696 0.04000
C 	C 	0.87134 0.67579 -0.07374 -0.17300
H 	H 	0.82991 0.70451 1.10885 0.03000
H 	H 	0.79780 0.69096 0.18332 0.02600
H 	H 	0.77758 0.62574 0.34625 0.06000
H 	H 	0.76677 0.65392 0.16993 0.06400
H 	H 	0.76522 0.61319 1.13117 0.05600
H 	H 	0.81288 0.58112 0.23629 0.05100
H 	H 	0.86161 0.54963 0.19898 0.06300
H 	H 	0.86670 0.56762 -0.59058 0.06900
H 	H 	0.89424 0.57047 0.24443 0.07000
H 	H 	0.89656 0.62513 0.37077 0.05200
H 	H 	0.90014 0.65995 0.23706 0.05100
H 	H 	0.91246 0.60654 0.91320 0.06100
H 	H 	1.00295 0.58667 1.07571 0.06400
H 	H 	0.02147 0.61284 0.30879 0.13600
H 	H 	0.94968 0.64137 0.39157 0.08100
H 	H 	0.89375 0.66713 -0.09717 0.06300
H 	H 	0.86014 0.67960 0.79228 0.05900
H 	H 	0.87351 0.69788 -0.00570 0.05900
C 	C 	0.30574 0.71197 0.39116 -0.03500
C 	C 	0.31965 0.68375 0.50368 -0.04700
C 	C 	0.30189 0.65963 0.57477 0.06500
C 	C 	0.26932 0.66433 0.59296 -0.17300
C 	C 	0.31492 0.63103 0.63831 -0.10500
C 	C 	0.34535 0.62672 0.65033 0.05400
C 	C 	0.35736 0.59430 -0.29254 -0.17400
C 	C 	0.36371 0.65280 0.61752 -0.01900
C 	C 	0.39655 0.64946 0.67070 -0.14000
C 	C 	0.41626 0.64315 0.51757 0.11800
C 	C 	0.43253 0.61477 0.51723 -0.14600
C 	C 	0.45059 0.60917 0.37354 0.13200
C 	C 	0.45343 0.63281 0.23631 -0.16800
C 	C 	0.43949 0.66170 0.24282 0.21900
O 	O 	0.44481 0.68532 0.11076 -0.29700
C 	C 	0.42046 0.66652 0.38035 -0.18000
C 	C 	0.35024 0.68200 0.54855 0.04400
C 	C 	0.36656 0.71241 0.53826 -0.18300
H 	H 	0.31720 0.73390 0.41482 0.02800
H 	H 	0.28365 0.71737 0.43802 0.01400
H 	H 	0.26555 0.68290 0.68600 0.03600
H 	H 	0.25787 0.67163 0.46359 0.06000
H 	H 	0.25887 0.64274 1.64801 0.05200
H 	H 	0.30116 0.61180 0.68067 0.05100
H 	H 	0.34002 0.57648 -0.29422 0.06200
H 	H 	0.36711 0.59351 -0.15409 0.06300
H 	H 	0.37398 0.58738 0.61346 0.05900
H 	H 	0.40018 0.63066 -0.22115 0.06400
H 	H 	0.40434 0.66998 0.73922 0.06200
H 	H 	0.43026 0.59670 0.62409 0.05900
H 	H 	0.46672 0.62874 1.12316 0.07700
H 	H 	0.43541 0.70625 0.13261 0.13900
H 	H 	0.40935 0.68875 0.37881 0.07600
H 	H 	0.38874 0.71134 0.60028 0.06300
H 	H 	0.36773 0.72142 0.39673 0.06300
H 	H 	0.35465 0.72983 0.61176 0.06300
C 	C 	0.19452 0.66815 1.20060 -0.05500
C 	C 	0.16252 0.65987 0.18155 -0.04200
C 	C 	0.14067 0.68079 0.23515 0.07100
C 	C 	0.14766 0.71279 0.29822 -0.19000
C 	C 	0.11161 0.67178 0.23144 -0.11300
C 	C 	0.10379 0.64151 0.19222 0.06900
C 	C 	0.07276 0.63244 0.22012 -0.20000
C 	C 	0.12521 0.61986 0.14085 -0.02600
C 	C 	0.11825 0.58502 0.13579 -0.13000
C 	C 	0.11687 0.57268 -0.04881 0.11300
C 	C 	0.09100 0.57544 0.84336 -0.14700
C 	C 	0.08963 0.56499 0.66734 0.11400
C 	C 	0.11599 0.55317 0.60375 -0.17400
C 	C 	0.14031 0.54608 0.71828 0.21300
O 	O 	0.16414 0.52988 0.65474 -0.30800
C 	C 	0.14008 0.55453 -0.10535 -0.18000
C 	C 	0.15443 0.63013 0.12334 0.04400
C 	C 	0.17676 0.60919 0.04423 -0.17800
H 	H 	0.20578 0.64819 1.27882 0.03400
H 	H 	0.19769 0.68760 0.28931 0.03200
H 	H 	0.15994 0.71016 0.42955 0.06300
H 	H 	0.16111 0.72601 0.20071 0.06800
H 	H 	0.12767 0.72720 1.31448 0.06000
H 	H 	0.09499 0.68793 0.27150 0.05300
H 	H 	0.05859 0.65298 0.24379 0.07000
H 	H 	0.07236 0.61589 -0.65938 0.07200
H 	H 	0.06338 0.62153 0.10122 0.06400
H 	H 	0.09751 0.57943 0.19988 0.05000
H 	H 	0.13503 0.57157 0.22145 0.05500
H 	H 	0.07167 0.58355 -0.09531 0.06100
H 	H 	0.11797 0.54733 0.46889 0.08200
H 	H 	0.18039 0.52474 0.74879 0.13400
H 	H 	0.15836 0.54765 -0.01441 0.07000
H 	H 	0.16948 0.60527 -0.09509 0.07100
H 	H 	0.19846 0.61926 1.03105 0.06400
H 	H 	0.18006 0.58700 0.12829 0.06300
