data_crystal

_cell_length_a 32.38640
_cell_length_b 36.12530
_cell_length_c 33.23780
_cell_angle_alpha 90.64180
_cell_angle_beta  87.68570
_cell_angle_gamma 83.95830

_symmetry_space_group_name_	'P 1'
_symmetry_space_group_name_H-M	'P 1'

loop_
_symmetry_equiv_pos_as_xyz
  x,y,z

loop_
_atom_site_label
_atom_site_type_symbol
_atom_site_fract_x
_atom_site_fract_y
_atom_site_fract_z
_atom_site_charge
Eu	Eu	0.13574 0.62983 0.09514 1.88500
O 	O 	0.08942 0.69659 0.14353 -0.26600
C 	C 	0.07808 0.58180 0.05169 0.38700
O 	O 	0.16540 0.68025 0.03459 -0.29300
O 	O 	0.18268 0.67238 0.09889 -0.39400
O 	O 	0.17248 0.55726 0.05448 -0.27900
O 	O 	0.08961 0.60229 0.02562 -0.28200
O 	O 	0.08899 0.58724 0.09114 -0.41600
O 	O 	0.11481 0.63873 0.16106 -0.40000
C 	C 	0.08788 0.67106 0.16701 0.28200
O 	O 	0.18373 0.58328 0.11429 -0.39700
C 	C 	0.18253 0.55246 0.08911 0.28900
C 	C 	0.18784 0.68813 0.06124 0.37900
Eu	Eu	0.37235 0.87777 0.87702 1.84400
O 	O 	0.43605 0.83949 0.81248 -0.24300
C 	C 	0.45635 0.89821 0.89776 0.34600
O 	O 	0.35722 0.90007 0.79399 -0.28100
O 	O 	0.31184 0.89072 0.84495 -0.40900
O 	O 	0.37933 0.88030 0.97061 -0.26300
O 	O 	0.46014 0.90768 0.86285 -0.23000
O 	O 	0.43474 0.86779 0.90646 -0.38900
O 	O 	0.38018 0.82087 0.84618 -0.40200
C 	C 	0.40830 0.81919 0.81339 0.28500
O 	O 	0.33935 0.85058 0.92952 -0.39800
C 	C 	0.35970 0.85376 0.96527 0.28200
C 	C 	0.32143 0.90487 0.80731 0.37100
Eu	Eu	0.13268 0.14070 0.60259 1.86500
O 	O 	0.06303 0.20205 0.58624 -0.28900
C 	C 	0.09988 0.07830 0.55484 0.38100
O 	O 	0.18540 0.18803 0.54392 -0.27300
O 	O 	0.16803 0.19142 0.61052 -0.41500
O 	O 	0.17581 0.06200 0.62910 -0.25600
O 	O 	0.13013 0.08545 0.53455 -0.28400
O 	O 	0.09464 0.09191 0.59419 -0.39700
O 	O 	0.07985 0.17026 0.64213 -0.38600
C 	C 	0.05928 0.20020 0.62276 0.39100
O 	O 	0.15700 0.11704 0.66143 -0.40300
C 	C 	0.16725 0.07863 0.66093 0.29100
C 	C 	0.17724 0.20760 0.57386 0.27400
Eu	Eu	0.88941 0.90086 0.38942 1.85400
O 	O 	0.94406 0.87925 0.31167 -0.25000
C 	C 	0.94567 0.90299 0.46463 0.27000
O 	O 	0.81075 0.94574 0.36475 -0.27800
O 	O 	0.86405 0.91543 0.32787 -0.39500
O 	O 	0.81332 0.91093 0.45114 -0.25400
O 	O 	0.97384 0.88506 0.48137 -0.17600
O 	O 	0.91345 0.88415 0.45101 -0.38100
O 	O 	0.92372 0.84648 0.36503 -0.36600
C 	C 	0.94392 0.84908 0.32765 0.39400
O 	O 	0.83447 0.86814 0.40290 -0.36800
C 	C 	0.81647 0.87834 0.44052 0.38600
C 	C 	0.82667 0.93822 0.33143 0.38700
Eu	Eu	0.87648 0.37492 0.88291 1.75100
O 	O 	0.94950 0.39341 0.83191 -0.27200
C 	C 	0.94090 0.40813 0.93220 0.25200
O 	O 	0.85524 0.41909 0.80358 -0.28800
O 	O 	0.82126 0.38038 0.84257 -0.42400
O 	O 	0.87879 0.32893 0.97039 -0.24800
O 	O 	0.94526 0.42824 0.90355 -0.25500
O 	O 	0.92969 0.37239 0.92592 -0.39900
O 	O 	0.91570 0.34224 0.83275 -0.38300
C 	C 	0.93972 0.36682 0.81318 0.27700
O 	O 	0.85220 0.32269 0.90917 -0.39100
C 	C 	0.84843 0.32510 0.95097 0.25600
C 	C 	0.82215 0.41098 0.81770 0.27400
Eu	Eu	0.60873 0.12125 0.10010 1.81500
O 	O 	0.58570 0.19366 0.15439 -0.24100
C 	C 	0.55901 0.05894 0.07162 0.28000
O 	O 	0.66859 0.13915 0.03327 -0.28100
O 	O 	0.64952 0.16839 0.09230 -0.39500
O 	O 	0.64811 0.06484 0.16583 -0.24400
O 	O 	0.58021 0.06505 0.04178 -0.29500
O 	O 	0.56742 0.07451 0.10841 -0.43700
O 	O 	0.60148 0.13289 0.16768 -0.39000
C 	C 	0.57875 0.16729 0.17523 0.25700
O 	O 	0.66776 0.08091 0.10286 -0.40900
C 	C 	0.67536 0.06344 0.13935 0.29800
C 	C 	0.67139 0.16584 0.05533 0.37800
Eu	Eu	0.64588 0.63405 0.59232 1.89400
O 	O 	0.57939 0.70030 0.58872 -0.25200
C 	C 	0.59057 0.59017 0.54165 0.37800
O 	O 	0.68053 0.69578 0.54349 -0.28700
O 	O 	0.68103 0.68254 0.60956 -0.41600
O 	O 	0.70445 0.56153 0.60012 -0.26700
O 	O 	0.58889 0.62086 0.52660 -0.27500
O 	O 	0.61189 0.58415 0.57679 -0.39000
O 	O 	0.59206 0.65601 0.63513 -0.37500
C 	C 	0.57001 0.68824 0.62155 0.38800
O 	O 	0.67390 0.60361 0.64570 -0.38400
C 	C 	0.69862 0.57084 0.63541 0.39300
C 	C 	0.69642 0.69946 0.57571 0.28100
Eu	Eu	0.36164 0.40793 0.36722 1.86500
O 	O 	0.41422 0.38048 0.29117 -0.25700
C 	C 	0.42024 0.44052 0.42484 0.26700
O 	O 	0.30096 0.46622 0.33192 -0.28500
O 	O 	0.32349 0.40787 0.31103 -0.38600
O 	O 	0.31921 0.41377 0.45130 -0.24800
O 	O 	0.39947 0.46990 0.41886 -0.26100
O 	O 	0.40247 0.40730 0.42145 -0.40000
O 	O 	0.39728 0.35235 0.34881 -0.38500
C 	C 	0.41706 0.35221 0.31096 0.38700
O 	O 	0.31521 0.37386 0.39962 -0.37100
C 	C 	0.30582 0.38557 0.43921 0.38300
C 	C 	0.30175 0.44259 0.30537 0.38300
C 	C 	0.94453 0.42287 0.97322 -0.03800
C 	C 	0.97232 0.44911 0.98045 -0.03400
C 	C 	0.97278 0.46628 0.01835 0.12000
C 	C 	1.00149 0.49482 0.02551 -0.12400
C 	C 	1.00349 0.52491 -0.00078 0.23000
F 	F 	0.97952 0.52808 0.96659 -0.38700
C 	C 	0.02912 0.55275 0.00709 0.28300
F 	F 	0.02956 0.58173 -0.01855 -0.38100
C 	C 	0.05279 0.55135 0.04177 -0.20800
C 	C 	0.05159 0.52067 0.06743 0.27600
F 	F 	0.07534 0.51736 0.10020 -0.41000
C 	C 	0.02625 0.49271 0.05934 0.21500
F 	F 	1.02638 0.46320 0.08430 -0.41100
C 	C 	0.94468 0.45733 0.04914 -0.05500
C 	C 	0.91569 0.43146 0.04243 -0.01800
C 	C 	0.88198 0.42332 0.07431 0.13300
C 	C 	0.88297 0.44665 0.11354 -0.22200
C 	C 	0.83859 0.43239 0.05697 -0.22000
C 	C 	0.88805 0.38181 0.08538 -0.22600
C 	C 	0.91696 0.41383 1.00423 -0.01300
H 	H 	0.99357 0.45627 0.95647 0.10000
H 	H 	0.94519 0.47165 0.07778 0.08100
H 	H 	0.91298 0.44025 0.12836 0.09500
H 	H 	0.85782 0.44043 0.13539 0.08600
H 	H 	0.87817 0.47691 0.10720 0.08700
H 	H 	0.83371 0.41321 1.03172 0.07000
H 	H 	0.81358 0.42958 0.08029 0.07600
H 	H 	0.83490 0.46139 0.04576 0.07700
H 	H 	0.91932 0.37469 0.09751 0.09700
H 	H 	0.88513 0.36354 0.05880 0.09500
H 	H 	0.86429 0.37538 0.10860 0.09200
H 	H 	0.89490 0.39434 0.99776 0.03000
C 	C 	0.52408 0.03587 0.06884 -0.03500
C 	C 	0.52038 0.01356 0.03466 -0.03900
C 	C 	0.48738 -0.00834 0.03241 0.13900
C 	C 	0.48413 0.96722 -0.00303 -0.13900
C 	C 	0.48401 0.92864 0.00169 0.23600
F 	F 	0.49011 0.91314 0.03828 -0.40300
C 	C 	0.47719 0.90581 -0.03113 0.27800
F 	F 	0.47733 0.86864 -0.02558 -0.40300
C 	C 	0.47011 0.92126 0.93079 -0.19400
C 	C 	0.47233 0.95974 0.92573 0.27200
F 	F 	0.46563 0.97578 0.88948 -0.38200
C 	C 	0.47914 0.98250 0.95862 0.24300
F 	F 	0.47860 0.01979 0.95346 -0.38400
C 	C 	0.45685 -0.00677 0.06374 -0.05900
C 	C 	0.45882 0.01649 0.09791 -0.00900
C 	C 	0.42489 0.02000 0.13218 0.12900
C 	C 	0.38646 -0.00016 0.12246 -0.22000
C 	C 	0.44337 0.00289 0.17065 -0.22000
C 	C 	0.40931 0.06150 0.14029 -0.21700
C 	C 	0.49365 0.03678 0.10032 -0.01300
H 	H 	0.54356 0.01258 0.01010 0.10000
H 	H 	0.43163 -0.02377 0.06061 0.07600
H 	H 	0.37284 0.01031 0.09401 0.09000
H 	H 	0.36190 0.00481 0.14686 0.08900
H 	H 	0.39466 -0.03078 0.11978 0.09400
H 	H 	0.47106 0.01632 0.17918 0.08100
H 	H 	0.42012 0.00629 0.19632 0.08400
H 	H 	0.45309 -0.02733 0.16581 0.09700
H 	H 	0.39808 0.07479 0.11217 0.08800
H 	H 	0.43404 0.07727 0.15190 0.07200
H 	H 	0.38325 0.06441 0.16332 0.08100
H 	H 	0.49682 0.05405 0.12656 0.03900
C 	C 	0.95000 0.36364 0.76955 -0.02300
C 	C 	0.96291 0.32927 0.75064 -0.03800
C 	C 	0.97404 0.32756 0.70923 0.13400
C 	C 	-0.00770 0.29212 0.68926 -0.13900
C 	C 	0.97937 0.28163 0.65117 0.23800
F 	F 	0.94668 0.30124 0.63414 -0.39200
C 	C 	0.00038 0.25115 0.62996 0.27300
F 	F 	0.98774 0.24245 0.59289 -0.37600
C 	C 	0.03444 0.23021 0.64654 -0.21000
C 	C 	0.04591 0.23934 0.68552 0.27600
F 	F 	0.07899 0.22007 0.70232 -0.40100
C 	C 	0.02526 0.27012 0.70654 0.22700
F 	F 	0.03951 0.27988 0.74260 -0.40000
C 	C 	0.97006 0.36047 0.68687 -0.06400
C 	C 	0.95651 0.39530 0.70502 -0.00800
C 	C 	0.95173 0.43048 0.67892 0.13400
C 	C 	0.99329 0.43528 0.65606 -0.21700
C 	C 	0.91790 0.42631 0.64832 -0.23100
C 	C 	0.93882 0.46665 0.70377 -0.22400
C 	C 	0.94718 0.39627 0.74682 -0.01300
H 	H 	0.96542 0.30414 0.76829 0.10500
H 	H 	0.97830 0.35899 0.65508 0.07600
H 	H 	0.01881 0.43541 0.67742 0.08200
H 	H 	0.99116 0.46195 0.63952 0.08700
H 	H 	1.00178 0.41270 0.63341 0.07900
H 	H 	0.88793 0.42225 0.66429 0.11200
H 	H 	0.91307 0.45155 0.62958 0.09800
H 	H 	0.92656 0.40209 0.62772 0.11000
H 	H 	0.96202 0.47092 0.72666 0.09300
H 	H 	0.90773 0.46590 0.71899 0.09300
H 	H 	0.93678 0.49133 0.68400 0.09000
H 	H 	0.93683 0.42221 0.76236 0.05600
C 	C 	0.73245 0.72085 0.57898 -0.02600
C 	C 	0.74003 0.74825 0.55103 -0.03700
C 	C 	0.77485 0.76769 0.55407 0.14500
C 	C 	0.78361 0.79548 0.52384 -0.13200
C 	C 	0.76229 0.83133 0.52599 0.24400
F 	F 	0.73236 0.84033 0.55528 -0.37300
C 	C 	0.77238 0.85832 0.49849 0.29000
F 	F 	0.75164 0.89297 0.50155 -0.36900
C 	C 	0.80358 0.84953 0.46812 -0.19500
C 	C 	0.82419 0.81318 0.46562 0.28800
F 	F 	0.85505 0.80380 0.43731 -0.37400
C 	C 	0.81444 0.78648 0.49350 0.24300
F 	F 	0.83537 0.75186 0.49121 -0.38100
C 	C 	0.80230 0.75991 0.58511 -0.05500
C 	C 	0.79578 0.73202 0.61345 -0.00600
C 	C 	0.82646 0.72112 0.64671 0.14100
C 	C 	0.86100 0.74746 0.64939 -0.23000
C 	C 	0.80296 0.72219 0.68820 -0.23200
C 	C 	0.84755 0.68139 0.63790 -0.22800
C 	C 	0.76034 0.71279 0.60973 -0.01200
H 	H 	0.71908 0.75438 0.52679 0.10000
H 	H 	0.82881 0.77566 0.58617 0.07900
H 	H 	0.88083 0.74609 0.62122 0.10200
H 	H 	0.88173 0.73938 0.67439 0.09700
H 	H 	0.84725 0.77664 0.65515 0.10200
H 	H 	0.78095 0.70065 0.69028 0.10700
H 	H 	0.82499 0.71672 0.71277 0.10000
H 	H 	0.78521 0.74993 0.69377 0.10800
H 	H 	0.86437 0.68008 0.60800 0.10200
H 	H 	0.82443 0.66077 0.63777 0.09400
H 	H 	0.87032 0.67289 0.66109 0.09500
H 	H 	0.75483 0.69064 0.63025 0.05300
C 	C 	0.19059 0.51435 0.10483 -0.02000
C 	C 	0.21101 0.50825 0.14093 -0.03700
C 	C 	0.21659 0.47249 0.15712 0.13700
C 	C 	0.23896 0.46570 0.19490 -0.12700
C 	C 	0.22717 0.48712 0.22987 0.23900
F 	F 	0.19503 0.51446 0.22966 -0.38600
C 	C 	0.24756 0.47979 0.26574 0.28700
F 	F 	0.23470 0.50059 0.29907 -0.37500
C 	C 	0.28014 0.45076 0.26740 -0.19500
C 	C 	0.29217 0.42966 0.23218 0.28600
F 	F 	0.32431 0.40229 0.23199 -0.36600
C 	C 	0.27186 0.43712 0.19635 0.23900
F 	F 	0.28498 0.41683 0.16272 -0.38600
C 	C 	0.20069 0.44289 0.13731 -0.05300
C 	C 	0.17984 0.44808 0.10100 -0.00400
C 	C 	0.16223 0.41469 0.08085 0.14800
C 	C 	0.19793 0.38368 0.07103 -0.23300
C 	C 	0.12971 0.39958 0.10982 -0.23500
C 	C 	0.14068 0.42474 0.04109 -0.23100
C 	C 	0.17566 0.48424 0.08484 0.00200
H 	H 	0.22305 0.53122 0.15624 0.10500
H 	H 	0.20429 0.41567 0.15077 0.08400
H 	H 	0.22247 0.39460 0.05158 0.10500
H 	H 	0.18638 0.35993 0.05494 0.09400
H 	H 	0.21235 0.37256 0.09876 0.10800
H 	H 	0.10423 0.42181 0.11789 0.12900
H 	H 	0.11589 0.37602 0.09559 0.09900
H 	H 	0.14371 0.38917 0.13802 0.10000
H 	H 	0.16295 0.43481 0.01847 0.09500
H 	H 	0.11392 0.44638 0.04639 0.11400
H 	H 	0.12837 0.39997 0.02778 0.09500
H 	H 	0.15984 0.48976 0.05721 0.06400
C 	C 	0.78318 0.43421 0.81007 -0.04300
C 	C 	0.77909 0.45558 0.77527 -0.03300
C 	C 	0.74230 0.47850 0.76954 0.13500
C 	C 	0.73778 0.50208 0.73383 -0.13100
C 	C 	0.73657 0.48608 0.69529 0.23900
F 	F 	0.74327 0.44858 0.69000 -0.38100
C 	C 	0.72581 0.50852 0.66245 0.28900
F 	F 	0.72245 0.49207 0.62596 -0.36600
C 	C 	0.71616 0.54726 0.66794 -0.20000
C 	C 	0.72026 0.56327 0.70622 0.28500
F 	F 	0.71338 0.60068 0.71238 -0.38300
C 	C 	0.73076 0.54084 0.73886 0.23500
F 	F 	0.73302 0.55687 0.77576 -0.39100
C 	C 	0.70953 0.48015 0.79858 -0.05300
C 	C 	0.71308 0.45950 0.83423 -0.01000
C 	C 	0.67909 0.46319 0.86833 0.13300
C 	C 	0.63809 0.48527 0.85597 -0.22600
C 	C 	0.66863 0.42421 0.88144 -0.22100
C 	C 	0.69529 0.48383 0.90437 -0.21900
C 	C 	0.75043 0.43647 0.83924 -0.00900
H 	H 	0.80449 0.45477 0.75292 0.08500
H 	H 	0.68174 0.49830 0.79294 0.08400
H 	H 	0.64266 0.51463 0.84908 0.10400
H 	H 	0.61401 0.48610 0.88086 0.09300
H 	H 	0.62581 0.47202 0.82924 0.10100
H 	H 	0.69512 0.40834 0.89584 0.07800
H 	H 	0.64202 0.42647 0.90386 0.08300
H 	H 	0.66018 0.40790 0.85502 0.09900
H 	H 	0.69855 0.51329 0.89677 0.09600
H 	H 	0.72631 0.47095 0.91261 0.07000
H 	H 	0.67368 0.48348 0.93117 0.07900
H 	H 	0.75485 0.42107 0.86671 0.02400
C 	C 	0.35956 0.82425 0.99556 -0.02300
C 	C 	0.32415 0.80574 1.00282 -0.03400
C 	C 	0.32504 0.77608 0.02980 0.12900
C 	C 	0.28762 0.75633 0.03780 -0.12500
C 	C 	0.26643 0.74241 0.00580 0.23400
F 	F 	0.27913 0.74774 0.96706 -0.38400
C 	C 	0.23323 0.72125 0.01336 0.28600
F 	F 	0.21449 0.70749 -0.01854 -0.37800
C 	C 	0.22072 0.71321 0.05321 -0.19700
C 	C 	0.24118 0.72818 0.08522 0.28600
F 	F 	0.22939 0.72222 0.12407 -0.37500
C 	C 	0.27420 0.74953 0.07758 0.23500
F 	F 	0.29312 0.76362 0.10920 -0.38700
C 	C 	0.36223 0.76422 0.04845 -0.05400
C 	C 	0.39857 0.78209 0.04128 -0.01000
C 	C 	0.44051 0.76865 0.05956 0.14500
C 	C 	0.43847 0.73392 0.08614 -0.23200
C 	C 	0.47358 0.75835 1.02531 -0.23400
C 	C 	0.45458 0.80001 0.08599 -0.24300
C 	C 	0.39606 0.81283 1.01537 -0.01500
H 	H 	0.29578 0.81474 0.98787 0.10200
H 	H 	0.36238 0.74037 0.06776 0.08500
H 	H 	0.41579 0.73984 0.11197 0.10700
H 	H 	0.46920 0.72523 0.09874 0.09500
H 	H 	0.42971 0.71000 0.06824 0.09600
H 	H 	0.48016 0.78304 1.00755 0.11900
H 	H 	0.50342 0.74646 1.03763 0.10100
H 	H 	0.46288 0.73739 1.00448 0.10400
H 	H 	0.43071 0.80843 0.11024 0.10800
H 	H 	0.45980 0.82495 1.06803 0.12500
H 	H 	0.48427 0.79059 0.10023 0.10300
H 	H 	0.42323 0.82717 1.00913 0.08600
C 	C 	0.16748 0.05867 0.69946 -0.02300
C 	C 	0.19481 0.02653 0.70529 -0.03600
C 	C 	0.19631 0.00974 0.74323 0.13600
C 	C 	0.22809 0.97850 0.75208 -0.12600
C 	C 	0.27044 0.98173 0.74375 0.23700
F 	F 	0.28251 0.01104 0.72272 -0.38000
C 	C 	0.30088 0.95650 0.75992 0.28500
F 	F 	0.34142 0.96196 0.75334 -0.37400
C 	C 	0.28953 0.92779 0.78514 -0.20400
C 	C 	0.24724 0.92308 0.79118 0.28300
F 	F 	0.23525 0.89490 0.81408 -0.38800
C 	C 	0.21681 0.94792 0.77440 0.23300
F 	F 	0.17616 0.94291 0.78123 -0.39000
C 	C 	0.16952 0.02488 0.77486 -0.05600
C 	C 	0.14068 0.05626 0.76938 -0.00700
C 	C 	0.11038 0.07298 0.80347 0.14100
C 	C 	0.11411 0.05105 0.84317 -0.22800
C 	C 	0.11928 0.11330 0.81261 -0.23100
C 	C 	0.06525 0.07287 0.79014 -0.23000
C 	C 	0.14056 0.07303 0.73131 -0.01000
H 	H 	0.21579 0.01543 0.68086 0.11000
H 	H 	0.17258 0.01235 0.80407 0.08500
H 	H 	0.10802 0.02164 0.83836 0.10600
H 	H 	0.09115 0.06348 0.86661 0.09300
H 	H 	0.14550 0.05167 0.85536 0.09400
H 	H 	0.11442 0.13136 0.78606 0.10800
H 	H 	0.09842 0.12577 0.83769 0.09700
H 	H 	0.15198 0.11373 0.82143 0.10100
H 	H 	0.05904 0.04413 0.78192 0.10700
H 	H 	0.05912 0.09086 0.76374 0.10400
H 	H 	0.04265 0.08340 0.81477 0.09800
H 	H 	0.11922 0.09751 0.72621 0.05800
C 	C 	0.05687 0.67372 0.20096 -0.02700
C 	C 	0.04263 0.70820 0.21894 -0.03200
C 	C 	0.01219 0.71060 0.25034 0.12600
C 	C 	0.99741 0.74700 0.26989 -0.11800
C 	C 	0.98461 0.77812 0.24664 0.24000
F 	F 	0.98594 0.77548 0.20582 -0.37800
C 	C 	0.96841 0.81178 0.26529 0.29500
F 	F 	0.95487 0.84079 0.24191 -0.36100
C 	C 	0.96434 0.81482 0.30755 -0.19300
C 	C 	0.97818 0.78394 0.33075 0.29300
F 	F 	0.97593 0.78609 0.37162 -0.36400
C 	C 	0.99475 0.75050 0.31214 0.24200
F 	F 	0.00841 0.72151 0.33552 -0.38400
C 	C 	0.99545 0.67817 0.26317 -0.04300
C 	C 	0.00950 0.64296 0.24586 -0.01400
C 	C 	-0.00768 0.60670 0.25975 0.14300
C 	C 	-0.04258 0.61329 0.29307 -0.24000
C 	C 	0.97412 0.58748 0.22373 -0.22700
C 	C 	0.02792 0.58038 0.27665 -0.23300
C 	C 	0.04077 0.64142 0.21488 -0.00900
H 	H 	0.05590 0.73304 0.20908 0.10900
H 	H 	0.97126 0.68110 0.28667 0.08900
H 	H 	-0.03110 0.62625 0.32037 0.11100
H 	H 	0.94605 0.58654 0.30232 0.09900
H 	H 	0.93045 0.63141 0.28207 0.10300
H 	H 	0.99833 0.57864 0.19998 0.10000
H 	H 	0.96004 0.56211 0.23353 0.09300
H 	H 	0.94960 0.60668 0.21014 0.09600
H 	H 	0.04192 0.59417 0.30205 0.11300
H 	H 	0.05282 0.57235 0.25329 0.10900
H 	H 	0.01632 0.55434 0.28785 0.09900
H 	H 	0.05219 0.61497 0.20079 0.05300
C 	C 	0.17529 0.24850 0.57135 -0.02600
C 	C 	0.20296 0.26579 0.54607 -0.03600
C 	C 	0.19980 0.30482 0.54377 0.13500
C 	C 	0.22905 0.32380 0.51753 -0.12500
C 	C 	0.23639 0.31330 0.47682 0.24000
F 	F 	0.21781 0.28477 0.46103 -0.38200
C 	C 	0.26156 0.33305 0.45151 0.28700
F 	F 	0.26704 0.32222 0.41226 -0.37100
C 	C 	0.27986 0.36400 0.46633 -0.19100
C 	C 	0.27287 0.37407 0.50735 0.28600
F 	F 	0.28989 0.40345 0.52328 -0.37000
C 	C 	0.24801 0.35410 0.53261 0.23800
F 	F 	0.24260 0.36436 0.57206 -0.38700
C 	C 	0.16803 0.32628 0.56623 -0.05500
C 	C 	0.13956 0.30955 0.59157 -0.00700
C 	C 	0.10282 0.33224 0.61458 0.13800
C 	C 	0.10435 0.37485 0.61227 -0.22500
C 	C 	0.06212 0.32301 0.59619 -0.23100
C 	C 	0.10255 0.32221 0.65966 -0.23200
C 	C 	0.14406 0.27036 0.59378 -0.00900
H 	H 	0.22738 0.24899 0.52893 0.10600
H 	H 	0.16536 0.35610 0.56266 0.08700
H 	H 	0.13379 0.38280 0.62424 0.10500
H 	H 	0.07823 0.38990 0.63056 0.08100
H 	H 	0.10149 0.38467 0.58086 0.09200
H 	H 	0.05938 0.29271 0.59680 0.10700
H 	H 	0.03474 0.33756 0.61295 0.09200
H 	H 	0.06112 0.33183 0.56429 0.10400
H 	H 	0.13181 0.32880 0.67315 0.11100
H 	H 	0.09956 0.29232 0.66432 0.11200
H 	H 	0.07595 0.33814 0.67652 0.09900
H 	H 	0.12224 0.25640 0.61203 0.04800
C 	C 	0.54500 0.17131 0.20677 -0.02600
C 	C 	0.52902 0.20661 0.22163 -0.04300
C 	C 	0.49534 0.21053 0.24965 0.13600
C 	C 	0.47824 0.24786 0.26513 -0.12900
C 	C 	0.46631 0.27664 0.23848 0.23800
F 	F 	0.47115 0.27088 0.19805 -0.38700
C 	C 	0.44760 0.31109 0.25322 0.28900
F 	F 	0.43523 0.33779 0.22655 -0.36300
C 	C 	0.44035 0.31730 0.29495 -0.20000
C 	C 	0.45391 0.28889 0.32157 0.28300
F 	F 	0.44942 0.29428 0.36208 -0.39000
C 	C 	0.47259 0.25456 0.30679 0.23500
F 	F 	0.48545 0.22783 0.33328 -0.39000
C 	C 	0.47725 0.17882 0.26253 -0.05900
C 	C 	0.49224 0.14294 0.24783 -0.00800
C 	C 	0.47009 0.10912 0.26155 0.13200
C 	C 	0.47260 0.10501 0.30760 -0.22700
C 	C 	0.42399 0.11481 0.25031 -0.22100
C 	C 	0.48958 0.07213 0.24166 -0.22000
C 	C 	0.52682 0.13977 0.22012 -0.01900
H 	H 	0.54282 0.23112 0.21150 0.10600
H 	H 	0.45066 0.18243 0.28353 0.08600
H 	H 	0.50560 0.10155 0.31621 0.10800
H 	H 	0.45766 0.08023 0.31791 0.09800
H 	H 	0.45652 0.12971 0.32402 0.11000
H 	H 	0.42160 0.12042 0.21761 0.08200
H 	H 	0.40821 0.08957 0.25717 0.08500
H 	H 	0.40661 0.13851 0.26740 0.09500
H 	H 	0.52275 0.06624 0.24910 0.09300
H 	H 	0.48721 0.07328 0.20844 0.07300
H 	H 	0.47322 0.04837 0.25254 0.08300
H 	H 	0.53935 0.11305 0.20757 0.04700
C 	C 	0.40344 0.79345 0.77956 -0.01900
C 	C 	0.43739 0.78038 0.75401 -0.03400
C 	C 	0.43199 0.75692 0.72125 0.14300
C 	C 	0.46818 0.74115 0.69587 -0.12800
C 	C 	0.49968 0.71744 0.71284 0.24200
F 	F 	0.49768 0.70980 0.75274 -0.38000
C 	C 	0.53286 0.70059 0.68871 0.28800
F 	F 	0.56264 0.67780 0.70639 -0.36900
C 	C 	0.53535 0.70733 0.64703 -0.19100
C 	C 	0.50397 0.73171 0.63021 0.29000
F 	F 	0.50499 0.73883 0.59018 -0.36300
C 	C 	0.47053 0.74825 0.65444 0.24400
F 	F 	0.44046 0.77132 0.63752 -0.37600
C 	C 	0.39233 0.74691 0.71366 -0.05400
C 	C 	0.35762 0.75919 0.73934 -0.00700
C 	C 	0.31377 0.74765 0.73295 0.14500
C 	C 	0.31174 0.72275 0.69501 -0.23300
C 	C 	0.29984 0.72560 0.76972 -0.23300
C 	C 	0.28284 0.78275 0.72822 -0.23600
C 	C 	0.36410 0.78238 0.77246 -0.00900
H 	H 	0.46812 0.78795 0.75985 0.10600
H 	H 	0.38948 0.72878 0.68809 0.08500
H 	H 	0.32065 0.73758 0.66739 0.10900
H 	H 	0.27970 0.71514 0.69149 0.10000
H 	H 	0.33248 0.69638 0.69721 0.10200
H 	H 	0.29721 0.74298 0.79766 0.10700
H 	H 	0.26892 0.71578 0.76525 0.10300
H 	H 	0.32256 0.70090 0.77439 0.10600
H 	H 	0.29303 0.79953 0.70257 0.11200
H 	H 	0.28008 0.80064 0.75575 0.11000
H 	H 	0.25127 0.77501 0.72248 0.10500
H 	H 	0.33821 0.79242 0.79268 0.05600
C 	C 	0.46454 0.43979 0.43379 -0.02500
C 	C 	0.47927 0.46935 0.45454 -0.03600
C 	C 	0.52171 0.46888 0.46153 0.13800
C 	C 	0.53741 0.50018 0.48331 -0.12800
C 	C 	0.56251 0.49334 0.51648 0.24100
F 	F 	0.57083 0.45821 0.53029 -0.37900
C 	C 	0.57908 0.52260 0.53589 0.28600
F 	F 	0.60365 0.51452 0.56743 -0.36500
C 	C 	0.57103 0.55944 0.52239 -0.19300
C 	C 	0.54500 0.56627 0.48966 0.28600
F 	F 	0.53572 0.60131 0.47596 -0.36700
C 	C 	0.52842 0.53692 0.47036 0.24100
F 	F 	0.50464 0.54430 0.43810 -0.38200
C 	C 	0.54960 0.43886 0.44695 -0.05500
C 	C 	0.53567 0.40896 0.42533 -0.00800
C 	C 	0.56560 0.37639 0.40715 0.14300
C 	C 	0.61149 0.37878 0.41734 -0.23100
C 	C 	0.55304 0.33912 0.42345 -0.23700
C 	C 	0.56323 0.37632 0.36083 -0.22800
C 	C 	0.49265 0.40990 0.41950 -0.01400
H 	H 	0.45770 0.49251 0.46571 0.10900
H 	H 	0.58221 0.43987 0.45200 0.08600
H 	H 	0.62310 0.40421 0.40449 0.09700
H 	H 	0.63178 0.35445 0.40441 0.09800
H 	H 	0.61507 0.37884 0.45047 0.11000
H 	H 	0.52182 0.33365 0.41375 0.11900
H 	H 	0.57537 0.31546 0.41211 0.10800
H 	H 	0.55266 0.33931 0.45690 0.11500
H 	H 	0.57099 0.40338 0.34861 0.09600
H 	H 	0.53172 0.37161 0.35125 0.09500
H 	H 	0.58551 0.35383 0.34691 0.09800
H 	H 	0.48091 0.38781 0.40251 0.04500
C 	C 	0.94468 0.94407 0.46262 -0.08800
C 	C 	0.97642 0.96198 0.47962 -0.01500
C 	C 	0.97379 1.00081 0.48194 0.12000
C 	C 	1.00653 0.01930 0.50142 -0.11800
C 	C 	0.04745 0.01526 0.48514 0.23400
F 	F 	0.05742 -0.00591 0.45143 -0.38300
C 	C 	0.07807 0.03394 0.50272 0.28900
F 	F 	0.11719 0.02976 0.48583 -0.37200
C 	C 	0.06834 0.05665 0.53733 -0.19700
C 	C 	0.02740 0.05990 0.55403 0.28000
F 	F 	1.01649 0.08177 0.58702 -0.37800
C 	C 	0.99678 0.04158 0.53606 0.24200
F 	F 	0.95747 0.04561 0.55252 -0.38100
C 	C 	0.93956 0.02216 0.46649 -0.04300
C 	C 	0.90764 0.00511 0.44810 -0.03000
C 	C 	0.87039 0.02781 0.42927 0.14000
C 	C 	0.86999 0.07034 0.43592 -0.23100
C 	C 	0.87238 0.02007 0.38346 -0.21200
C 	C 	0.82914 0.01647 0.44790 -0.22700
C 	C 	0.91083 0.96575 0.44667 0.01400
H 	H 	1.00269 0.94581 0.49240 0.09700
H 	H 	0.93883 0.05208 0.46878 0.08000
H 	H 	0.86867 0.07747 0.46861 0.11100
H 	H 	0.84234 0.08555 0.42252 0.10500
H 	H 	0.89794 0.08071 0.42132 0.09900
H 	H 	0.87182 -0.00998 0.37660 0.05100
H 	H 	0.84561 0.03558 0.36898 0.12100
H 	H 	0.90149 0.02889 0.36955 0.08600
H 	H 	0.82793 1.02066 0.48113 0.11300
H 	H 	0.82517 0.98694 0.44127 0.10700
H 	H 	0.80211 0.03352 0.43556 0.11900
H 	H 	0.88651 0.95192 0.43366 -0.10300
C 	C 	0.71684 0.04312 0.14513 -0.03200
C 	C 	0.72617 0.02436 0.18097 -0.03100
C 	C 	0.76593 1.00579 0.18581 0.12700
C 	C 	0.77694 0.98695 0.22392 -0.12300
C 	C 	0.79726 0.95052 0.22301 0.23400
F 	F 	0.80259 0.93067 0.18789 -0.38300
C 	C 	0.81261 0.93436 0.25815 0.29300
F 	F 	0.83262 0.89938 0.25605 -0.36500
C 	C 	0.80730 0.95406 0.29504 -0.20400
C 	C 	0.78510 0.98975 0.29634 0.28700
F 	F 	0.77960 1.00961 0.33141 -0.39800
C 	C 	0.77042 1.00620 0.26102 0.23200
F 	F 	0.75191 0.04173 0.26278 -0.38600
C 	C 	0.79632 0.00593 0.15451 -0.04900
C 	C 	0.78778 0.02424 0.11806 -0.01100
C 	C 	0.82059 0.02514 0.08320 0.14000
C 	C 	0.86222 0.00180 0.09134 -0.23000
C 	C 	0.80401 0.00936 0.04430 -0.22400
C 	C 	0.82968 0.06575 0.07647 -0.22800
C 	C 	0.74776 0.04299 0.11424 -0.00800
H 	H 	0.70265 0.02410 0.20505 0.10300
H 	H 	0.82685 0.99212 0.15956 0.08500
H 	H 	0.87707 0.01302 0.11777 0.09800
H 	H 	0.88454 0.00238 0.06510 0.09600
H 	H 	0.85732 -0.02779 0.09661 0.11200
H 	H 	0.77632 1.02690 0.03408 0.09600
H 	H 	0.82801 0.00812 0.01931 0.09600
H 	H 	0.79537 0.98075 0.04928 0.10200
H 	H 	0.84024 0.07788 0.10467 0.09800
H 	H 	0.80164 0.08340 0.06713 0.09800
H 	H 	0.85438 0.06715 0.05249 0.09500
H 	H 	0.74070 0.05790 0.08692 0.05600
C 	C 	0.80762 0.32503 0.97176 -0.04700
C 	C 	0.79291 0.29157 0.98359 -0.02700
C 	C 	0.75513 0.29212 0.00579 0.12600
C 	C 	0.73875 0.25725 0.01878 -0.12800
C 	C 	0.72723 0.25272 0.05946 0.23300
F 	F 	0.73558 0.27804 0.08769 -0.39500
C 	C 	0.70654 0.22241 0.07140 0.28300
F 	F 	0.69566 0.21944 0.11101 -0.38100
C 	C 	0.69687 0.19589 0.04284 -0.20400
C 	C 	0.71023 0.19954 0.00226 0.28300
F 	F 	0.70163 0.17466 -0.02633 -0.38100
C 	C 	0.73102 0.22999 -0.00960 0.23200
F 	F 	0.74158 0.23386 0.95083 -0.38200
C 	C 	0.73207 0.32631 0.01566 -0.06000
C 	C 	0.74545 0.36032 1.00294 -0.01200
C 	C 	0.71794 0.39696 1.01334 0.12600
C 	C 	0.67431 0.39527 0.99663 -0.20800
C 	C 	0.71387 0.40255 0.05949 -0.22200
C 	C 	0.73564 0.43147 0.99523 -0.21100
C 	C 	0.78394 0.35904 0.98100 -0.01400
H 	H 	0.81115 0.26530 0.97625 0.09300
H 	H 	0.70305 0.32617 0.03296 0.08000
H 	H 	0.67684 0.38900 0.96382 0.08000
H 	H 	0.65471 0.42221 0.00156 0.07700
H 	H 	0.65757 0.37354 0.01146 0.08700
H 	H 	0.74502 0.40279 0.07221 0.08500
H 	H 	0.69521 0.42937 0.06767 0.08500
H 	H 	0.69825 0.38001 0.07415 0.10100
H 	H 	0.73936 0.42835 0.96203 0.06000
H 	H 	0.76614 0.43548 1.00763 0.06600
H 	H 	0.71448 0.45719 1.00227 0.07500
H 	H 	0.79626 0.38417 0.97094 -0.00400
