data_crystal

_cell_length_a 7.78340
_cell_length_b 10.13010
_cell_length_c 10.32770
_cell_angle_alpha 103.87300
_cell_angle_beta  91.79700
_cell_angle_gamma 90.93500

_symmetry_space_group_name_	'P 1'
_symmetry_space_group_name_H-M	'P 1'

loop_
_symmetry_equiv_pos_as_xyz
  x,y,z

loop_
_atom_site_label
_atom_site_type_symbol
_atom_site_fract_x
_atom_site_fract_y
_atom_site_fract_z
_atom_site_charge
Br	Br	0.00374 0.21483 0.09376 -0.21700
O 	O 	0.01070 0.48730 0.35420 -0.55700
O 	O 	0.26920 0.54650 0.30640 -0.42300
C 	C 	0.99710 0.38280 0.04360 0.12400
C 	C 	0.05780 0.50060 0.12990 -0.11100
C 	C 	0.11650 0.51080 0.27290 0.39900
C 	C 	0.93960 0.38080 0.91470 -0.06000
H 	H 	0.89920 0.29980 0.85800 0.09200
Br	Br	0.17285 0.98647 0.29075 -0.21400
C 	C 	0.43710 0.12280 0.47760 -0.10700
O 	O 	0.48440 0.34700 0.45140 -0.55000
C 	C 	0.42180 0.87790 0.43560 -0.07500
H 	H 	0.36810 0.79610 0.39130 0.06700
O 	O 	0.21890 0.28430 0.48190 -0.40600
C 	C 	0.37440 0.26040 0.46720 0.38900
C 	C 	0.36100 0.99880 0.41490 0.14900
Ca	Ca	0.25016 0.53263 0.54032 1.50000
Br	Br	0.99626 0.78517 0.90624 -0.21700
O 	O 	0.98930 0.51270 0.64580 -0.55700
O 	O 	0.73080 0.45350 0.69360 -0.42300
C 	C 	0.00290 0.61720 0.95640 0.12400
C 	C 	0.94220 0.49940 0.87010 -0.11100
C 	C 	0.88350 0.48920 0.72710 0.39900
C 	C 	0.06040 0.61920 0.08530 -0.06000
H 	H 	0.10080 0.70020 0.14200 0.09200
Br	Br	0.82715 0.01353 0.70925 -0.21400
C 	C 	0.56290 0.87720 0.52240 -0.10700
O 	O 	0.51560 0.65300 0.54860 -0.55000
C 	C 	0.57820 0.12210 0.56440 -0.07500
H 	H 	0.63190 0.20390 0.60870 0.06700
O 	O 	0.78110 0.71570 0.51810 -0.40600
C 	C 	0.62560 0.73960 0.53280 0.38900
C 	C 	0.63900 0.00120 0.58510 0.14900
Ca	Ca	0.74984 0.46737 0.45968 1.50000
