data_crystal

_cell_length_a 12.38040
_cell_length_b 12.38040
_cell_length_c 46.50500
_cell_angle_alpha 90.00000
_cell_angle_beta  90.00000
_cell_angle_gamma 90.00000

_symmetry_space_group_name_	'P 1'
_symmetry_space_group_name_H-M	'P 1'

loop_
_symmetry_equiv_pos_as_xyz
  x,y,z

loop_
_atom_site_label
_atom_site_type_symbol
_atom_site_fract_x
_atom_site_fract_y
_atom_site_fract_z
_atom_site_charge
N 	N 	0.07900 0.88540 0.28180 -0.26600
N 	N 	0.89510 0.95510 0.37659 -0.13800
N 	N 	0.92560 0.13120 0.35770 -0.14000
N 	N 	0.84670 0.11130 0.40440 -0.14200
N 	N 	0.74690 0.79520 0.46777 -0.26500
C 	C 	0.01640 0.82620 0.29900 0.06100
C 	C 	0.96350 0.86690 0.32280 -0.11600
C 	C 	0.97780 0.97560 0.32950 0.04200
C 	C 	0.03720 0.04020 0.31110 -0.10900
C 	C 	0.08670 0.99040 0.28760 0.04500
C 	C 	0.92930 0.02380 0.35590 0.10000
C 	C 	0.88010 0.17060 0.38200 0.09300
C 	C 	0.85470 0.00540 0.40010 0.10100
C 	C 	0.82060 0.93170 0.42370 0.04500
C 	C 	0.81970 0.82000 0.42020 -0.10500
C 	C 	0.78320 0.75280 0.44260 0.04900
C 	C 	0.74740 0.90320 0.47050 0.06900
C 	C 	0.78150 0.97270 0.45010 -0.11600
H 	H 	0.00800 0.75040 0.29470 -0.01900
H 	H 	0.91740 0.82210 0.33400 0.07800
H 	H 	0.04320 0.11830 0.31450 0.06400
H 	H 	0.12800 0.03500 0.27460 -0.02400
H 	H 	0.87180 0.24820 0.38360 0.01300
H 	H 	0.84300 0.78830 0.40260 0.07500
H 	H 	0.78430 0.67780 0.43970 -0.01900
H 	H 	0.72160 0.93270 0.48830 -0.02600
H 	H 	0.78020 0.04940 0.45330 0.06900
N 	N 	0.92100 0.11460 0.78180 -0.26500
N 	N 	0.10490 0.04490 0.87659 -0.13700
N 	N 	0.07440 0.86880 0.85770 -0.13900
N 	N 	0.15330 0.88870 0.90440 -0.14100
N 	N 	0.25310 0.20480 0.96777 -0.26400
C 	C 	0.98360 0.17380 0.79900 0.06200
C 	C 	0.03650 0.13310 0.82280 -0.11500
C 	C 	0.02220 0.02440 0.82950 0.04300
C 	C 	0.96280 0.95980 0.81110 -0.10800
C 	C 	0.91330 0.00960 0.78760 0.04500
C 	C 	0.07070 0.97620 0.85590 0.10000
C 	C 	0.11990 0.82940 0.88200 0.09300
C 	C 	0.14530 0.99460 0.90010 0.10100
C 	C 	0.17940 0.06830 0.92370 0.04500
C 	C 	0.18030 0.18000 0.92020 -0.10500
C 	C 	0.21680 0.24720 0.94260 0.04900
C 	C 	0.25260 0.09680 0.97050 0.06900
C 	C 	0.21850 0.02730 0.95010 -0.11500
H 	H 	0.99200 0.24960 0.79470 -0.01900
H 	H 	0.08260 0.17790 0.83400 0.07800
H 	H 	0.95680 0.88170 0.81450 0.06400
H 	H 	0.87200 0.96500 0.77460 -0.02400
H 	H 	0.12820 0.75180 0.88360 0.01300
H 	H 	0.15700 0.21170 0.90260 0.07500
H 	H 	0.21570 0.32220 0.93970 -0.01800
H 	H 	0.27840 0.06730 0.98830 -0.02500
H 	H 	0.21980 0.95060 0.95330 0.06900
N 	N 	0.61460 0.57900 0.53180 -0.26700
N 	N 	0.54490 0.39510 0.62659 -0.13700
N 	N 	0.36880 0.42560 0.60770 -0.14000
N 	N 	0.38870 0.34670 0.65440 -0.14100
N 	N 	0.70480 0.24690 0.71777 -0.26500
C 	C 	0.67380 0.51640 0.54900 0.06800
C 	C 	0.63310 0.46350 0.57280 -0.12200
C 	C 	0.52440 0.47780 0.57950 0.04600
C 	C 	0.45980 0.53720 0.56110 -0.11400
C 	C 	0.50960 0.58670 0.53760 0.05400
C 	C 	0.47620 0.42930 0.60590 0.09800
C 	C 	0.32940 0.38010 0.63200 0.09300
C 	C 	0.49460 0.35470 0.65010 0.10100
C 	C 	0.56830 0.32060 0.67370 0.04500
C 	C 	0.68000 0.31970 0.67020 -0.10500
C 	C 	0.74720 0.28320 0.69260 0.04900
C 	C 	0.59680 0.24740 0.72050 0.07000
C 	C 	0.52730 0.28150 0.70010 -0.11800
H 	H 	0.74960 0.50800 0.54470 -0.02000
H 	H 	0.67790 0.41740 0.58400 0.08000
H 	H 	0.38170 0.54320 0.56450 0.06600
H 	H 	0.46500 0.62800 0.52460 -0.02800
H 	H 	0.25180 0.37180 0.63360 0.01200
H 	H 	0.71170 0.34300 0.65260 0.07500
H 	H 	0.82220 0.28430 0.68970 -0.01900
H 	H 	0.56730 0.22160 0.73830 -0.02700
H 	H 	0.45060 0.28020 0.70330 0.07000
N 	N 	0.38540 0.42100 0.03180 -0.26800
N 	N 	0.45510 0.60490 0.12659 -0.13700
N 	N 	0.63120 0.57440 0.10770 -0.14000
N 	N 	0.61130 0.65330 0.15440 -0.14100
N 	N 	0.29520 0.75310 0.21777 -0.26500
C 	C 	0.32620 0.48360 0.04900 0.06800
C 	C 	0.36690 0.53650 0.07280 -0.12200
C 	C 	0.47560 0.52220 0.07950 0.04600
C 	C 	0.54020 0.46280 0.06110 -0.11400
C 	C 	0.49040 0.41330 0.03760 0.05400
C 	C 	0.52380 0.57070 0.10590 0.09800
C 	C 	0.67060 0.61990 0.13200 0.09300
C 	C 	0.50540 0.64530 0.15010 0.10100
C 	C 	0.43170 0.67940 0.17370 0.04500
C 	C 	0.32000 0.68030 0.17020 -0.10500
C 	C 	0.25280 0.71680 0.19260 0.04900
C 	C 	0.40320 0.75260 0.22050 0.07000
C 	C 	0.47270 0.71850 0.20010 -0.11800
H 	H 	0.25040 0.49200 0.04470 -0.02100
H 	H 	0.32210 0.58260 0.08400 0.08000
H 	H 	0.61830 0.45680 0.06450 0.06600
H 	H 	0.53500 0.37200 0.02460 -0.02800
H 	H 	0.74820 0.62820 0.13360 0.01200
H 	H 	0.28830 0.65700 0.15260 0.07500
H 	H 	0.17780 0.71570 0.18970 -0.01900
H 	H 	0.43270 0.77840 0.23830 -0.02700
H 	H 	0.54940 0.71980 0.20330 0.07000
N 	N 	0.42100 0.38540 0.96820 -0.26700
N 	N 	0.60490 0.45510 0.87341 -0.13700
N 	N 	0.57440 0.63120 0.89230 -0.14000
N 	N 	0.65330 0.61130 0.84560 -0.14100
N 	N 	0.75310 0.29520 0.78223 -0.26500
C 	C 	0.48360 0.32620 0.95100 0.06800
C 	C 	0.53650 0.36690 0.92720 -0.12200
C 	C 	0.52220 0.47560 0.92050 0.04600
C 	C 	0.46280 0.54020 0.93890 -0.11400
C 	C 	0.41330 0.49040 0.96240 0.05400
C 	C 	0.57070 0.52380 0.89410 0.09800
C 	C 	0.61990 0.67060 0.86800 0.09300
C 	C 	0.64530 0.50540 0.84990 0.10100
C 	C 	0.67940 0.43170 0.82630 0.04500
C 	C 	0.68030 0.32000 0.82980 -0.10500
C 	C 	0.71680 0.25280 0.80740 0.04900
C 	C 	0.75260 0.40320 0.77950 0.07000
C 	C 	0.71850 0.47270 0.79990 -0.11800
H 	H 	0.49200 0.25040 0.95530 -0.02000
H 	H 	0.58260 0.32210 0.91600 0.08000
H 	H 	0.45680 0.61830 0.93550 0.06600
H 	H 	0.37200 0.53500 0.97540 -0.02700
H 	H 	0.62820 0.74820 0.86640 0.01200
H 	H 	0.65700 0.28830 0.84740 0.07500
H 	H 	0.71570 0.17780 0.81030 -0.01900
H 	H 	0.77840 0.43270 0.76170 -0.02700
H 	H 	0.71980 0.54940 0.79670 0.07000
N 	N 	0.57900 0.61460 0.46820 -0.26700
N 	N 	0.39510 0.54490 0.37341 -0.13700
N 	N 	0.42560 0.36880 0.39230 -0.14000
N 	N 	0.34670 0.38870 0.34560 -0.14100
N 	N 	0.24690 0.70480 0.28223 -0.26500
C 	C 	0.51640 0.67380 0.45100 0.06800
C 	C 	0.46350 0.63310 0.42720 -0.12200
C 	C 	0.47780 0.52440 0.42050 0.04600
C 	C 	0.53720 0.45980 0.43890 -0.11400
C 	C 	0.58670 0.50960 0.46240 0.05400
C 	C 	0.42930 0.47620 0.39410 0.09800
C 	C 	0.38010 0.32940 0.36800 0.09300
C 	C 	0.35470 0.49460 0.34990 0.10100
C 	C 	0.32060 0.56830 0.32630 0.04500
C 	C 	0.31970 0.68000 0.32980 -0.10500
C 	C 	0.28320 0.74720 0.30740 0.04900
C 	C 	0.24740 0.59680 0.27950 0.07000
C 	C 	0.28150 0.52730 0.29990 -0.11800
H 	H 	0.50800 0.74960 0.45530 -0.02000
H 	H 	0.41740 0.67790 0.41600 0.08000
H 	H 	0.54320 0.38170 0.43550 0.06600
H 	H 	0.62800 0.46500 0.47540 -0.02800
H 	H 	0.37180 0.25180 0.36640 0.01200
H 	H 	0.34300 0.71170 0.34740 0.07500
H 	H 	0.28430 0.82220 0.31030 -0.01900
H 	H 	0.22160 0.56730 0.26170 -0.02700
H 	H 	0.28020 0.45060 0.29670 0.07000
N 	N 	0.88540 0.07900 0.71820 -0.26500
N 	N 	0.95510 0.89510 0.62341 -0.13700
N 	N 	0.13120 0.92560 0.64230 -0.13900
N 	N 	0.11130 0.84670 0.59560 -0.14100
N 	N 	0.79520 0.74690 0.53223 -0.26400
C 	C 	0.82620 0.01640 0.70100 0.06200
C 	C 	0.86690 0.96350 0.67720 -0.11500
C 	C 	0.97560 0.97780 0.67050 0.04300
C 	C 	0.04020 0.03720 0.68890 -0.10800
C 	C 	0.99040 0.08670 0.71240 0.04500
C 	C 	0.02380 0.92930 0.64410 0.10000
C 	C 	0.17060 0.88010 0.61800 0.09300
C 	C 	0.00540 0.85470 0.59990 0.10100
C 	C 	0.93170 0.82060 0.57630 0.04500
C 	C 	0.82000 0.81970 0.57980 -0.10500
C 	C 	0.75280 0.78320 0.55740 0.04900
C 	C 	0.90320 0.74740 0.52950 0.06900
C 	C 	0.97270 0.78150 0.54990 -0.11600
H 	H 	0.75040 0.00800 0.70530 -0.01900
H 	H 	0.82210 0.91740 0.66600 0.07800
H 	H 	0.11830 0.04320 0.68550 0.06400
H 	H 	0.03500 0.12800 0.72540 -0.02400
H 	H 	0.24820 0.87180 0.61640 0.01300
H 	H 	0.78830 0.84300 0.59740 0.07500
H 	H 	0.67780 0.78430 0.56030 -0.01900
H 	H 	0.93270 0.72160 0.51170 -0.02600
H 	H 	0.04940 0.78020 0.54670 0.06900
N 	N 	0.11460 0.92100 0.21820 -0.26500
N 	N 	0.04490 0.10490 0.12341 -0.13700
N 	N 	0.86880 0.07440 0.14230 -0.13900
N 	N 	0.88870 0.15330 0.09560 -0.14100
N 	N 	0.20480 0.25310 0.03223 -0.26500
C 	C 	0.17380 0.98360 0.20100 0.06200
C 	C 	0.13310 0.03650 0.17720 -0.11500
C 	C 	0.02440 0.02220 0.17050 0.04300
C 	C 	0.95980 0.96280 0.18890 -0.10800
C 	C 	0.00960 0.91330 0.21240 0.04500
C 	C 	0.97620 0.07070 0.14410 0.10000
C 	C 	0.82940 0.11990 0.11800 0.09300
C 	C 	0.99460 0.14530 0.09990 0.10100
C 	C 	0.06830 0.17940 0.07630 0.04400
C 	C 	0.18000 0.18030 0.07980 -0.10500
C 	C 	0.24720 0.21680 0.05740 0.04900
C 	C 	0.09680 0.25260 0.02950 0.06800
C 	C 	0.02730 0.21850 0.04990 -0.11600
H 	H 	0.24960 0.99200 0.20530 -0.01900
H 	H 	0.17790 0.08260 0.16600 0.07800
H 	H 	0.88170 0.95680 0.18550 0.06400
H 	H 	0.96500 0.87200 0.22540 -0.02400
H 	H 	0.75180 0.12820 0.11640 0.01300
H 	H 	0.21170 0.15700 0.09740 0.07500
H 	H 	0.32220 0.21570 0.06030 -0.01900
H 	H 	0.06730 0.27840 0.01170 -0.02700
H 	H 	0.95060 0.21980 0.04670 0.06900
Zn	Zn	0.18518 0.81482 0.25000 1.14500
Zn	Zn	0.81482 0.18518 0.75000 1.14500
Zn	Zn	0.68518 0.68518 0.50000 1.14500
Zn	Zn	0.31482 0.31482 -0.00000 1.14500
N 	N 	0.85180 0.34660 0.27610 -0.27800
N 	N 	0.06560 0.44840 0.36256 -0.13800
N 	N 	0.03980 0.61960 0.34000 -0.14500
N 	N 	0.12210 0.61200 0.38590 -0.14200
N 	N 	0.18880 0.32270 0.46064 -0.26600
C 	C 	0.91180 0.29390 0.29530 0.07700
C 	C 	0.97510 0.34330 0.31570 -0.13300
C 	C 	0.97310 0.45420 0.31720 0.06000
C 	C 	0.91190 0.51310 0.29750 -0.13300
C 	C 	0.85070 0.45280 0.27720 0.07000
C 	C 	0.03120 0.51160 0.34120 0.09400
C 	C 	0.08750 0.66160 0.36260 0.10500
C 	C 	0.10920 0.50440 0.38480 0.09700
C 	C 	0.13960 0.44010 0.41050 0.05200
C 	C 	0.14280 0.32700 0.41040 -0.12000
C 	C 	0.16680 0.27250 0.43570 0.07000
C 	C 	0.18590 0.42940 0.46010 0.06500
C 	C 	0.16410 0.49310 0.43600 -0.12200
H 	H 	0.91300 0.21790 0.29420 -0.02700
H 	H 	0.01700 0.30320 0.32880 0.08400
H 	H 	0.91060 0.58950 0.29760 0.07200
H 	H 	0.80870 0.49050 0.26330 -0.03500
H 	H 	0.09890 0.73930 0.36240 0.00900
H 	H 	0.12520 0.28780 0.39350 0.08000
H 	H 	0.16820 0.19660 0.43560 -0.01800
H 	H 	0.19580 0.46590 0.47790 -0.02600
H 	H 	0.16640 0.57020 0.43660 0.07400
N 	N 	0.14820 0.65340 0.77610 -0.27800
N 	N 	0.93440 0.55160 0.86256 -0.13800
N 	N 	0.96020 0.38040 0.84000 -0.14500
N 	N 	0.87790 0.38800 0.88590 -0.14200
N 	N 	0.81120 0.67730 0.96064 -0.26500
C 	C 	0.08820 0.70610 0.79530 0.07700
C 	C 	0.02490 0.65670 0.81570 -0.13300
C 	C 	0.02690 0.54580 0.81720 0.06000
C 	C 	0.08810 0.48690 0.79750 -0.13300
C 	C 	0.14930 0.54720 0.77720 0.07000
C 	C 	0.96880 0.48840 0.84120 0.09400
C 	C 	0.91250 0.33840 0.86260 0.10500
C 	C 	0.89080 0.49560 0.88480 0.09700
C 	C 	0.86040 0.55990 0.91050 0.05200
C 	C 	0.85720 0.67300 0.91040 -0.12000
C 	C 	0.83320 0.72750 0.93570 0.07000
C 	C 	0.81410 0.57060 0.96010 0.06500
C 	C 	0.83590 0.50690 0.93600 -0.12200
H 	H 	0.08700 0.78210 0.79420 -0.02700
H 	H 	0.98300 0.69680 0.82880 0.08400
H 	H 	0.08940 0.41050 0.79760 0.07200
H 	H 	0.19130 0.50950 0.76330 -0.03500
H 	H 	0.90110 0.26070 0.86240 0.00900
H 	H 	0.87480 0.71220 0.89350 0.08000
H 	H 	0.83180 0.80340 0.93560 -0.01800
H 	H 	0.80420 0.53410 0.97790 -0.02500
H 	H 	0.83360 0.42980 0.93660 0.07500
N 	N 	0.15340 0.35180 0.52610 -0.27800
N 	N 	0.05160 0.56560 0.61256 -0.13700
N 	N 	0.88040 0.53980 0.59000 -0.14400
N 	N 	0.88800 0.62210 0.63590 -0.14200
N 	N 	0.17730 0.68880 0.71064 -0.26500
C 	C 	0.20610 0.41180 0.54530 0.07900
C 	C 	0.15670 0.47510 0.56570 -0.13700
C 	C 	0.04580 0.47310 0.56720 0.05700
C 	C 	0.98690 0.41190 0.54750 -0.13000
C 	C 	0.04720 0.35070 0.52720 0.06800
C 	C 	0.98840 0.53120 0.59120 0.09600
C 	C 	0.83840 0.58750 0.61260 0.10600
C 	C 	0.99560 0.60920 0.63480 0.09700
C 	C 	0.05990 0.63960 0.66050 0.05200
C 	C 	0.17300 0.64280 0.66040 -0.11900
C 	C 	0.22750 0.66680 0.68570 0.07000
C 	C 	0.07060 0.68590 0.71010 0.06500
C 	C 	0.00690 0.66410 0.68600 -0.12000
H 	H 	0.28210 0.41300 0.54420 -0.02800
H 	H 	0.19680 0.51700 0.57880 0.08700
H 	H 	0.91050 0.41060 0.54760 0.07100
H 	H 	0.00950 0.30870 0.51330 -0.03500
H 	H 	0.76070 0.59890 0.61240 0.01000
H 	H 	0.21220 0.62520 0.64350 0.08000
H 	H 	0.30340 0.66820 0.68560 -0.01800
H 	H 	0.03410 0.69580 0.72790 -0.02500
H 	H 	0.92980 0.66640 0.68660 0.07300
N 	N 	0.84660 0.64820 0.02610 -0.27800
N 	N 	0.94840 0.43440 0.11256 -0.13700
N 	N 	0.11960 0.46020 0.09000 -0.14400
N 	N 	0.11200 0.37790 0.13590 -0.14200
N 	N 	0.82270 0.31120 0.21064 -0.26500
C 	C 	0.79390 0.58820 0.04530 0.07800
C 	C 	0.84330 0.52490 0.06570 -0.13700
C 	C 	0.95420 0.52690 0.06720 0.05700
C 	C 	0.01310 0.58810 0.04750 -0.13000
C 	C 	0.95280 0.64930 0.02720 0.06800
C 	C 	0.01160 0.46880 0.09120 0.09600
C 	C 	0.16160 0.41250 0.11260 0.10600
C 	C 	0.00440 0.39080 0.13480 0.09700
C 	C 	0.94010 0.36040 0.16050 0.05200
C 	C 	0.82700 0.35720 0.16040 -0.11900
C 	C 	0.77250 0.33320 0.18570 0.07000
C 	C 	0.92940 0.31410 0.21010 0.06500
C 	C 	0.99310 0.33590 0.18600 -0.12000
H 	H 	0.71790 0.58700 0.04420 -0.02800
H 	H 	0.80320 0.48300 0.07880 0.08700
H 	H 	0.08950 0.58940 0.04760 0.07000
H 	H 	0.99050 0.69130 0.01330 -0.03600
H 	H 	0.23930 0.40110 0.11240 0.01000
H 	H 	0.78780 0.37480 0.14350 0.08000
H 	H 	0.69660 0.33180 0.18560 -0.01800
H 	H 	0.96590 0.30420 0.22790 -0.02500
H 	H 	0.07020 0.33360 0.18660 0.07300
N 	N 	0.64820 0.84660 0.97390 -0.27700
N 	N 	0.43440 0.94840 0.88744 -0.13700
N 	N 	0.46020 0.11960 0.91000 -0.14400
N 	N 	0.37790 0.11200 0.86410 -0.14200
N 	N 	0.31120 0.82270 0.78936 -0.26500
C 	C 	0.58820 0.79390 0.95470 0.07900
C 	C 	0.52490 0.84330 0.93430 -0.13700
C 	C 	0.52690 0.95420 0.93280 0.05700
C 	C 	0.58810 0.01310 0.95250 -0.13000
C 	C 	0.64930 0.95280 0.97280 0.06800
C 	C 	0.46880 0.01160 0.90880 0.09600
C 	C 	0.41250 0.16160 0.88740 0.10600
C 	C 	0.39080 0.00440 0.86520 0.09700
C 	C 	0.36040 0.94010 0.83950 0.05200
C 	C 	0.35720 0.82700 0.83960 -0.11900
C 	C 	0.33320 0.77250 0.81430 0.07000
C 	C 	0.31410 0.92940 0.78990 0.06500
C 	C 	0.33590 0.99310 0.81400 -0.12000
H 	H 	0.58700 0.71790 0.95580 -0.02800
H 	H 	0.48300 0.80320 0.92120 0.08700
H 	H 	0.58940 0.08950 0.95240 0.07100
H 	H 	0.69130 0.99050 0.98670 -0.03500
H 	H 	0.40110 0.23930 0.88760 0.01000
H 	H 	0.37480 0.78780 0.85650 0.08000
H 	H 	0.33180 0.69660 0.81440 -0.01800
H 	H 	0.30420 0.96590 0.77210 -0.02500
H 	H 	0.33360 0.07020 0.81340 0.07300
N 	N 	0.35180 0.15340 0.47390 -0.27800
N 	N 	0.56560 0.05160 0.38744 -0.13700
N 	N 	0.53980 0.88040 0.41000 -0.14400
N 	N 	0.62210 0.88800 0.36410 -0.14200
N 	N 	0.68880 0.17730 0.28936 -0.26500
C 	C 	0.41180 0.20610 0.45470 0.07900
C 	C 	0.47510 0.15670 0.43430 -0.13700
C 	C 	0.47310 0.04580 0.43280 0.05700
C 	C 	0.41190 0.98690 0.45250 -0.13000
C 	C 	0.35070 0.04720 0.47280 0.06800
C 	C 	0.53120 0.98840 0.40880 0.09600
C 	C 	0.58750 0.83840 0.38740 0.10600
C 	C 	0.60920 0.99560 0.36520 0.09700
C 	C 	0.63960 0.05990 0.33950 0.05200
C 	C 	0.64280 0.17300 0.33960 -0.11900
C 	C 	0.66680 0.22750 0.31430 0.07000
C 	C 	0.68590 0.07060 0.28990 0.06500
C 	C 	0.66410 0.00690 0.31400 -0.12000
H 	H 	0.41300 0.28210 0.45580 -0.02800
H 	H 	0.51700 0.19680 0.42120 0.08700
H 	H 	0.41060 0.91050 0.45240 0.07100
H 	H 	0.30870 0.00950 0.48670 -0.03500
H 	H 	0.59890 0.76070 0.38760 0.01000
H 	H 	0.62520 0.21220 0.35650 0.08000
H 	H 	0.66820 0.30340 0.31440 -0.01800
H 	H 	0.69580 0.03410 0.27210 -0.02500
H 	H 	0.66640 0.92980 0.31340 0.07300
N 	N 	0.34660 0.85180 0.72390 -0.27800
N 	N 	0.44840 0.06560 0.63744 -0.13800
N 	N 	0.61960 0.03980 0.66000 -0.14500
N 	N 	0.61200 0.12210 0.61410 -0.14200
N 	N 	0.32270 0.18880 0.53936 -0.26600
C 	C 	0.29390 0.91180 0.70470 0.07700
C 	C 	0.34330 0.97510 0.68430 -0.13300
C 	C 	0.45420 0.97310 0.68280 0.06000
C 	C 	0.51310 0.91190 0.70250 -0.13300
C 	C 	0.45280 0.85070 0.72280 0.07000
C 	C 	0.51160 0.03120 0.65880 0.09400
C 	C 	0.66160 0.08750 0.63740 0.10500
C 	C 	0.50440 0.10920 0.61520 0.09700
C 	C 	0.44010 0.13960 0.58950 0.05200
C 	C 	0.32700 0.14280 0.58960 -0.12000
C 	C 	0.27250 0.16680 0.56430 0.07000
C 	C 	0.42940 0.18590 0.53990 0.06500
C 	C 	0.49310 0.16410 0.56400 -0.12200
H 	H 	0.21790 0.91300 0.70580 -0.02700
H 	H 	0.30320 0.01700 0.67120 0.08400
H 	H 	0.58950 0.91060 0.70240 0.07200
H 	H 	0.49050 0.80870 0.73670 -0.03500
H 	H 	0.73930 0.09890 0.63760 0.00900
H 	H 	0.28780 0.12520 0.60650 0.08000
H 	H 	0.19660 0.16820 0.56440 -0.01800
H 	H 	0.46590 0.19580 0.52210 -0.02600
H 	H 	0.57020 0.16640 0.56340 0.07400
N 	N 	0.65340 0.14820 0.22390 -0.27800
N 	N 	0.55160 0.93440 0.13744 -0.13800
N 	N 	0.38040 0.96020 0.16000 -0.14500
N 	N 	0.38800 0.87790 0.11410 -0.14200
N 	N 	0.67730 0.81120 0.03936 -0.26600
C 	C 	0.70610 0.08820 0.20470 0.07700
C 	C 	0.65670 0.02490 0.18430 -0.13300
C 	C 	0.54580 0.02690 0.18280 0.06000
C 	C 	0.48690 0.08810 0.20250 -0.13300
C 	C 	0.54720 0.14930 0.22280 0.07000
C 	C 	0.48840 0.96880 0.15880 0.09400
C 	C 	0.33840 0.91250 0.13740 0.10500
C 	C 	0.49560 0.89080 0.11520 0.09700
C 	C 	0.55990 0.86040 0.08950 0.05200
C 	C 	0.67300 0.85720 0.08960 -0.12000
C 	C 	0.72750 0.83320 0.06430 0.07000
C 	C 	0.57060 0.81410 0.03990 0.06500
C 	C 	0.50690 0.83590 0.06400 -0.12200
H 	H 	0.78210 0.08700 0.20580 -0.02700
H 	H 	0.69680 0.98300 0.17120 0.08400
H 	H 	0.41050 0.08940 0.20240 0.07200
H 	H 	0.50950 0.19130 0.23670 -0.03500
H 	H 	0.26070 0.90110 0.13760 0.00900
H 	H 	0.71220 0.87480 0.10650 0.08000
H 	H 	0.80340 0.83180 0.06440 -0.01900
H 	H 	0.53410 0.80420 0.02210 -0.02600
H 	H 	0.42980 0.83360 0.06340 0.07400
Zn	Zn	0.74361 0.25639 0.25000 1.14700
Zn	Zn	0.25639 0.74361 0.75000 1.14700
Zn	Zn	0.24361 0.24361 0.50000 1.14700
Zn	Zn	0.75639 0.75639 -0.00000 1.14600
