data_crystal

_audit_creation_method 'AiiDA-DDEC plugin'

_cell_length_a        32.02953
_cell_length_b        32.02936
_cell_length_c        23.45470

_cell_angle_alpha     89.98109
_cell_angle_beta     90.01900
_cell_angle_gamma     120.01225

_symmetry_space_group_name_Hall 'P 1'
_symmetry_space_group_name_H-M  'P 1'

loop_
_symmetry_equiv_pos_as_xyz
 'x,y,z'

loop_
_atom_site_label
_atom_site_type_symbol
_atom_site_fract_x
_atom_site_fract_y
_atom_site_fract_z
_atom_site_charge
Zn         Zn      0.15954   0.44286   0.97863   0.92098
Zn         Zn      0.28295   0.45628   0.97860   0.91661
Zn         Zn      0.22283   0.44789   0.85858   0.92680
Zn         Zn      0.55801   0.71665   0.97861   0.92070
Zn         Zn      0.28336   0.44199   0.47861   0.92066
Zn         Zn      0.49199   0.38305   0.14439   0.92149
Zn         Zn      0.17328   0.45620   0.47857   0.91613
Zn         Zn      0.87708   0.38406   0.14433   0.91632
Zn         Zn      0.55215   0.77492   0.85858   0.92748
Zn         Zn      0.88553   0.44401   0.02433   0.92717
Zn         Zn      0.55601   0.44154   0.02425   0.92780
Zn         Zn      0.54380   0.82672   0.97857   0.91621
Zn         Zn      0.28341   0.83988   0.97862   0.92139
Zn         Zn      0.55715   0.84046   0.47863   0.92099
Zn         Zn      0.61710   0.10950   0.14440   0.92131
Zn         Zn      0.54372   0.71705   0.47860   0.91662
Zn         Zn      0.61621   0.49326   0.14427   0.91679
Zn         Zn      0.22506   0.77719   0.85851   0.92705
Zn         Zn      0.55843   0.11450   0.02430   0.92732
Zn         Zn      0.17317   0.71695   0.97864   0.91734
Zn         Zn      0.16013   0.71660   0.47862   0.92163
Zn         Zn      0.88979   0.50805   0.14435   0.92235
Zn         Zn      0.28306   0.82683   0.47864   0.91725
Zn         Zn      0.50667   0.12295   0.14428   0.91670
Zn         Zn      0.55211   0.77718   0.35858   0.92673
Zn         Zn      0.61695   0.50801   0.64439   0.92152
Zn         Zn      0.61594   0.12291   0.64433   0.91630
Zn         Zn      0.22508   0.44785   0.35858   0.92747
Zn         Zn      0.55599   0.11447   0.52433   0.92713
Zn         Zn      0.55846   0.44399   0.52425   0.92783
Zn         Zn      0.89050   0.38290   0.64440   0.92131
Zn         Zn      0.50674   0.38379   0.64427   0.91683
Zn         Zn      0.22282   0.77494   0.35850   0.92724
Zn         Zn      0.88550   0.44157   0.52430   0.92737
Zn         Zn      0.49195   0.11021   0.64435   0.92241
Zn         Zn      0.87705   0.49333   0.64428   0.91682
Zn         Zn      0.82537   0.77660   0.31081   0.92348
Zn         Zn      0.94951   0.78980   0.31273   0.91714
Zn         Zn      0.88951   0.78119   0.19251   0.92615
Zn         Zn      0.22320   0.04836   0.31058   0.92452
Zn         Zn      0.95164   0.77680   0.81058   0.92431
Zn         Zn      0.84108   0.78970   0.81273   0.91761
Zn         Zn      0.21887   0.10834   0.19244   0.92633
Zn         Zn      0.21030   0.15892   0.31273   0.91753
Zn         Zn      0.95171   0.17478   0.31045   0.92309
Zn         Zn      0.22340   0.17463   0.81082   0.92349
Zn         Zn      0.21020   0.05049   0.81274   0.91717
Zn         Zn      0.89167   0.11053   0.19245   0.92583
Zn         Zn      0.84033   0.05078   0.31280   0.91800
Zn         Zn      0.82521   0.04829   0.81045   0.92338
Zn         Zn      0.94922   0.15967   0.81280   0.91782
Zn         Zn      0.21881   0.11049   0.69251   0.92610
Zn         Zn      0.89166   0.78114   0.69244   0.92631
Zn         Zn      0.88947   0.10833   0.69245   0.92587
H          H       0.34540   0.59225   0.78010   0.15338
H          H       0.30045   0.40138   0.06680   0.10483
H          H       0.10157   0.41594   0.09306   0.09387
H          H       0.39373   0.51722   0.96705   0.11617
H          H       0.15711   0.44140   0.76239   0.11189
H          H       0.29101   0.45222   0.76781   0.10872
H          H       0.44042   0.66690   0.77983   0.14905
H          H       0.29670   0.45366   0.66026   0.12499
H          H       0.36777   0.38779   0.10046   0.13152
H          H       0.46430   0.50603   0.99334   0.12962
H          H       0.07599   0.44736   0.93062   0.10092
H          H       0.99306   0.43209   0.95809   0.13171
H          H       0.02077   0.40229   0.12823   0.13181
H          H       0.15719   0.44205   0.65438   0.12698
H          H       0.24152   0.49754   0.94384   0.37562
H          H       0.40775   0.75284   0.78022   0.15315
H          H       0.59865   0.89923   0.06677   0.10389
H          H       0.58443   0.68592   0.09302   0.09414
H          H       0.48283   0.87680   0.96703   0.11525
H          H       0.55869   0.71582   0.76232   0.11153
H          H       0.54788   0.83890   0.76789   0.10918
H          H       0.33343   0.77353   0.77946   0.14929
H          H       0.54619   0.84317   0.66039   0.12832
H          H       0.61223   0.98007   0.10055   0.13163
H          H       0.49401   0.95849   0.99351   0.12763
H          H       0.55295   0.62902   0.93061   0.10179
H          H       0.56780   0.56108   0.95814   0.13147
H          H       0.59765   0.61848   0.12829   0.13170
H          H       0.55800   0.71541   0.65424   0.12656
H          H       0.50352   0.74412   0.94449   0.37444
H          H       0.24705   0.65489   0.78025   0.15212
H          H       0.10082   0.69954   0.06696   0.10515
H          H       0.31441   0.89831   0.09303   0.09319
H          H       0.12312   0.60612   0.96725   0.11595
H          H       0.28413   0.84288   0.76209   0.11156
H          H       0.16100   0.70898   0.76801   0.10876
H          H       0.22649   0.55992   0.77957   0.14890
H          H       0.15686   0.70273   0.66052   0.12650
H          H       0.01990   0.63226   0.10076   0.13130
H          H       0.04138   0.53559   0.99380   0.12974
H          H       0.37133   0.92396   0.93059   0.10064
H          H       0.43897   0.00690   0.95809   0.13126
H          H       0.38146   0.97917   0.12816   0.13161
H          H       0.28455   0.84241   0.65406   0.12706
H          H       0.25573   0.75813   0.94377   0.37493
H          H       0.40775   0.65460   0.28010   0.15350
H          H       0.59862   0.69955   0.56680   0.10502
H          H       0.58406   0.89844   0.59306   0.09390
H          H       0.48278   0.60627   0.46705   0.11608
H          H       0.55860   0.84289   0.26239   0.11195
H          H       0.54778   0.70899   0.26781   0.10869
H          H       0.33311   0.55959   0.27983   0.14895
H          H       0.54634   0.70331   0.16026   0.12485
H          H       0.61221   0.63223   0.60047   0.13152
H          H       0.49397   0.53570   0.49334   0.12950
H          H       0.55265   0.92401   0.43062   0.10089
H          H       0.56791   0.00694   0.45809   0.13179
H          H       0.59771   0.97923   0.62823   0.13202
H          H       0.55795   0.84281   0.15438   0.12714
H          H       0.50247   0.75849   0.44384   0.37549
H          H       0.24716   0.59226   0.28022   0.15323
H          H       0.10077   0.40135   0.56677   0.10397
H          H       0.31408   0.41557   0.59302   0.09410
H          H       0.12321   0.51717   0.46703   0.11535
H          H       0.28419   0.44132   0.26232   0.11167
H          H       0.16111   0.45213   0.26789   0.10900
H          H       0.22647   0.66657   0.27946   0.14942
H          H       0.15684   0.45382   0.16039   0.12576
H          H       0.01994   0.38777   0.60055   0.13131
H          H       0.04151   0.50600   0.49351   0.12750
H          H       0.37099   0.44705   0.43061   0.10180
H          H       0.43892   0.43220   0.45814   0.13159
H          H       0.38152   0.40235   0.62829   0.13169
H          H       0.28459   0.44200   0.15424   0.12685
H          H       0.25588   0.49648   0.44449   0.37456
H          H       0.34511   0.75295   0.28025   0.15203
H          H       0.30047   0.89919   0.56696   0.10504
H          H       0.10170   0.68559   0.59303   0.09334
H          H       0.39388   0.87689   0.46725   0.11587
H          H       0.15713   0.71587   0.26209   0.11136
H          H       0.29102   0.83900   0.26801   0.10951
H          H       0.44009   0.77351   0.27958   0.14890
H          H       0.29727   0.84314   0.16052   0.12680
H          H       0.36774   0.98010   0.60076   0.13150
H          H       0.46441   0.95862   0.49380   0.12982
H          H       0.07604   0.62867   0.43059   0.10069
H          H       0.99310   0.56103   0.45809   0.13129
H          H       0.02083   0.61855   0.62816   0.13155
H          H       0.15760   0.71545   0.15406   0.12687
H          H       0.24188   0.74427   0.44376   0.37492
H          H       0.01085   0.92529   0.11339   0.15345
H          H       0.96758   0.73457   0.40059   0.10462
H          H       0.76845   0.74957   0.42592   0.09294
H          H       0.06053   0.85059   0.30084   0.11583
H          H       0.82454   0.77519   0.09521   0.11091
H          H       0.95833   0.78588   0.10156   0.10816
H          H       0.10563  -0.00020   0.11169   0.14944
H          H       0.96469   0.78749   0.99422   0.12495
H          H       0.03490   0.72077   0.43342   0.13061
H          H       0.13114   0.83940   0.32654   0.12932
H          H       0.74185   0.78082   0.26389   0.10071
H          H       0.65899   0.76536   0.29211   0.13180
H          H       0.68775   0.73567   0.46184   0.13159
H          H       0.82495   0.77559   0.98728   0.12638
H          H       0.90806   0.83056   0.27755   0.37555
H          H       0.07495   0.08561   0.11318   0.15334
H          H       0.26537   0.23268   0.40023   0.10424
H          H       0.25015   0.01870   0.42554   0.09331
H          H       0.14932   0.20957   0.30051   0.11555
H          H       0.22493   0.04934   0.09537   0.11079
H          H       0.21419   0.17239   0.10133   0.10902
H          H       0.00041   0.10575   0.11144   0.15286
H          H       0.21252   0.17698   0.99394   0.12464
H          H       0.27899   0.31368   0.43321   0.13091
H          H       0.16036   0.29126   0.32618   0.12604
H          H       0.21893   0.96072   0.26364   0.10077
H          H       0.23463   0.89349   0.29197   0.13174
H          H       0.26428   0.95206   0.46161   0.13168
H          H       0.22449   0.04916   0.98747   0.12671
H          H       0.16941   0.07725   0.27740   0.37896
H          H       0.91389   0.98898   0.11406   0.15381
H          H       0.76709   0.03258   0.40065   0.10465
H          H       0.98132   0.23112   0.42521   0.09421
H          H       0.79012   0.93964   0.30096   0.11083
H          H       0.95068   0.17541   0.09522   0.11053
H          H       0.82752   0.04161   0.10143   0.10841
H          H       0.89344   0.89409   0.11248   0.14947
H          H       0.82289   0.03528   0.99407   0.12514
H          H       0.68595   0.96518   0.43350   0.13128
H          H       0.70827   0.86899   0.32664   0.12969
H          H       0.03957   0.25813   0.26342   0.10082
H          H       0.10663   0.34111   0.29190   0.13188
H          H       0.04775   0.31195   0.46137   0.13222
H          H       0.95073   0.17502   0.98731   0.12605
H          H       0.92245   0.09216   0.27766   0.37407
H          H       0.07472   0.98916   0.61339   0.15356
H          H       0.26544   0.03242   0.90059   0.10492
H          H       0.25043   0.23155   0.92592   0.09304
H          H       0.14942   0.93947   0.80084   0.11580
H          H       0.22481   0.17546   0.59521   0.11095
H          H       0.21412   0.04166   0.60156   0.10828
H          H       0.00020   0.89437   0.61169   0.15130
H          H       0.21251   0.03531   0.49422   0.12503
H          H       0.27924   0.96510   0.93342   0.13081
H          H       0.16061   0.86886   0.82654   0.12905
H          H       0.21919   0.25815   0.76389   0.10070
H          H       0.23464   0.34101   0.79211   0.13178
H          H       0.26434   0.31225   0.96184   0.13164
H          H       0.22442   0.17505   0.48728   0.12626
H          H       0.16944   0.09194   0.77755   0.37527
H          H       0.91439   0.92506   0.61318   0.15313
H          H       0.76732   0.73464   0.90023   0.10403
H          H       0.98130   0.74985   0.92554   0.09325
H          H       0.79043   0.85068   0.80051   0.11562
H          H       0.95066   0.77507   0.59537   0.11055
H          H       0.82761   0.78581   0.60133   0.10908
H          H       0.89425  -0.00040   0.61144   0.15311
H          H       0.82302   0.78749   0.49394   0.12483
H          H       0.68632   0.72102   0.93321   0.13080
H          H       0.70875   0.83964   0.82618   0.12633
H          H       0.03929   0.78107   0.76364   0.10075
H          H       0.10652   0.76538   0.79197   0.13184
H          H       0.04795   0.73572   0.96161   0.13166
H          H       0.95084   0.77551   0.48747   0.12655
H          H       0.92275   0.83059   0.77740   0.37915
H          H       0.01102   0.08611   0.61406   0.15362
H          H       0.96742   0.23291   0.90065   0.10448
H          H       0.76887   0.01868   0.92521   0.09433
H          H       0.06036   0.20988   0.80096   0.11035
H          H       0.82459   0.04931   0.59522   0.11061
H          H       0.95839   0.17248   0.60143   0.10828
H          H       0.10592   0.10656   0.61248   0.14972
H          H       0.96472   0.17711   0.49407   0.12497
H          H       0.03482   0.31406   0.93350   0.13124
H          H       0.13101   0.29173   0.82664   0.12985
H          H       0.74187   0.96043   0.76342   0.10079
H          H       0.65889   0.89337   0.79190   0.13168
H          H       0.68806   0.95226   0.96137   0.13233
H          H       0.82498   0.04927   0.48731   0.12613
H          H       0.90784   0.07754   0.77766   0.37404
H          H       0.67847   0.25918   0.44606   0.15045
H          H       0.63368   0.06799   0.73314   0.10456
H          H       0.43464   0.08281   0.75888   0.09349
H          H       0.72748   0.18387   0.63360   0.11613
H          H       0.49050   0.10796   0.42750   0.11180
H          H       0.62448   0.11890   0.43383   0.10859
H          H       0.77343   0.33379   0.44580   0.14982
H          H       0.63085   0.12111   0.32628   0.12561
H          H       0.70069   0.05411   0.76691   0.13104
H          H       0.79777   0.17250   0.66040   0.12989
H          H       0.40835   0.11415   0.59673   0.10161
H          H       0.32527   0.09830   0.62465   0.13183
H          H       0.35366   0.06835   0.79440   0.13140
H          H       0.49111   0.10890   0.31965   0.12647
H          H       0.57454   0.16408   0.60942   0.37402
H          H       0.74066   0.41942   0.44602   0.15314
H          H       0.93195   0.56580   0.73312   0.09940
H          H       0.91755   0.35221   0.75902   0.09374
H          H       0.81603   0.54360   0.63359   0.11146
H          H       0.89200   0.38259   0.42753   0.11138
H          H       0.88101   0.50560   0.43374   0.10914
H          H       0.66612   0.43976   0.44584   0.14934
H          H       0.87887   0.50981   0.32619   0.12590
H          H       0.94578   0.64668   0.76683   0.13122
H          H       0.82734   0.62525   0.66032   0.13032
H          H       0.88626   0.29487   0.59678   0.10080
H          H       0.90167   0.22736   0.62469   0.13209
H          H       0.93159   0.28541   0.79452   0.13114
H          H       0.89110   0.38229   0.31968   0.12578
H          H       0.83598   0.41061   0.60954   0.37552
H          H       0.58088   0.32186   0.44599   0.15302
H          H       0.43422   0.36616   0.73302   0.09985
H          H       0.64772   0.56550   0.75895   0.09321
H          H       0.45638   0.27245   0.63350   0.11161
H          H       0.61743   0.50954   0.42752   0.11208
H          H       0.49434   0.37555   0.43379   0.10889
H          H       0.56048   0.22689   0.44537   0.14924
H          H       0.49015   0.36917   0.32626   0.12880
H          H       0.35333   0.29905   0.76679   0.13140
H          H       0.37468   0.20206   0.66037   0.12982
H          H       0.70523   0.59154   0.59679   0.10095
H          H       0.77280   0.67443   0.62475   0.13181
H          H       0.71459   0.64629   0.79449   0.13121
H          H       0.61774   0.50894   0.31967   0.12635
H          H       0.58954   0.42591   0.60979   0.37739
H          H       0.74081   0.32153   0.94606   0.15044
H          H       0.93201   0.36632   0.23314   0.10453
H          H       0.91719   0.56536   0.25888   0.09342
H          H       0.81613   0.27252   0.13360   0.11197
H          H       0.89204   0.50950   0.92750   0.11201
H          H       0.88109   0.37552   0.93383   0.10842
H          H       0.66621   0.22657   0.94580   0.14981
H          H       0.87889   0.36915   0.82628   0.12519
H          H       0.94589   0.29931   0.26691   0.13101
H          H       0.82750   0.20223   0.16040   0.12993
H          H       0.88585   0.59165   0.09673   0.10159
H          H       0.90170   0.67473   0.12465   0.13199
H          H       0.93165   0.64634   0.29440   0.13136
H          H       0.89110   0.50889   0.81965   0.12668
H          H       0.83592   0.42546   0.10942   0.37406
H          H       0.58058   0.25934   0.94602   0.15316
H          H       0.43420   0.06805   0.23312   0.10433
H          H       0.64779   0.08245   0.25902   0.09364
H          H       0.45640   0.18397   0.13359   0.11146
H          H       0.61741   0.10800   0.92753   0.11138
H          H       0.49440   0.11899   0.93374   0.10907
H          H       0.56024   0.33388   0.94584   0.14934
H          H       0.49019   0.12113   0.82619   0.12583
H          H       0.35332   0.05422   0.26683   0.13118
H          H       0.37476   0.17266   0.16032   0.13015
H          H       0.70513   0.11374   0.09677   0.10079
H          H       0.77264   0.09833   0.12469   0.13212
H          H       0.71459   0.06841   0.29452   0.13113
H          H       0.61771   0.10890   0.81968   0.12578
H          H       0.58939   0.16402   0.10954   0.37535
H          H       0.67814   0.41912   0.94599   0.15296
H          H       0.63384   0.56578   0.23302   0.09974
H          H       0.43450   0.35228   0.25895   0.09309
H          H       0.72755   0.54363   0.13350   0.11160
H          H       0.49046   0.38257   0.92752   0.11190
H          H       0.62445   0.50567   0.93379   0.10905
H          H       0.77311   0.43952   0.94537   0.14914
H          H       0.63083   0.50985   0.82626   0.12621
H          H       0.70095   0.64667   0.26679   0.13140
H          H       0.79794   0.62533   0.16037   0.12990
H          H       0.40846   0.29477   0.09679   0.10097
H          H       0.32558   0.22720   0.12475   0.13173
H          H       0.35371   0.28541   0.29449   0.13115
H          H       0.49106   0.38226   0.81967   0.12630
H          H       0.57410   0.41046   0.10979   0.37498
C          C       0.22789   0.44698   0.58470   0.59603
C          C       0.22672   0.44699   0.64932   0.01271
C          C       0.46104   0.43579   0.06323   0.59426
C          C       0.42078   0.44545   0.04823   0.01756
C          C       0.00113   0.41616   0.04538   0.01903
C          C       0.37304   0.60139   0.81208  -0.18372
C          C       0.95238   0.40759   0.06387   0.58043
C          C       0.33741   0.42395   0.05231   0.07675
C          C       0.07644   0.41945   0.06508   0.08037
C          C       0.38987   0.48881   0.99578   0.08622
C          C       0.49006   0.66742   0.88632   0.54160
C          C       0.32382   0.53362   0.88547   0.55234
C          C       0.18672   0.44318   0.73773   0.08822
C          C       0.44178   0.63590   0.86238   0.07091
C          C       0.26222   0.44973   0.74081   0.08618
C          C       0.42162   0.63936   0.81183  -0.17446
C          C       0.36634   0.57677   0.86264   0.06898
C          C       0.26501   0.45024   0.68157  -0.15531
C          C       0.37439   0.41631   0.07038  -0.15391
C          C       0.42850   0.48260   0.01073  -0.14439
C          C       0.06198   0.43663   0.97364   0.08500
C          C       0.01656   0.42862   0.98893  -0.14647
C          C       0.03195   0.41175   0.08409  -0.14768
C          C       0.18706   0.44376   0.67838  -0.14944
C          C       0.55381   0.78147   0.58472   0.59658
C          C       0.55312   0.78000   0.64933   0.01063
C          C       0.56434   0.02549   0.06330   0.59364
C          C       0.55460   0.97551   0.04833   0.01891
C          C       0.58374   0.58502   0.04544   0.01999
C          C       0.39878   0.77154   0.81208  -0.18437
C          C       0.59235   0.54484   0.06389   0.57943
C          C       0.57609   0.91364   0.05228   0.07680
C          C       0.58078   0.65719   0.06513   0.08130
C          C       0.51127   0.90129   0.99577   0.08692
C          C       0.33264   0.82245   0.88595   0.54238
C          C       0.46648   0.79002   0.88553   0.55294
C          C       0.55681   0.74363   0.73770   0.08788
C          C       0.36432   0.80594   0.86203   0.06960
C          C       0.55024   0.81256   0.74085   0.08657
C          C       0.36090   0.78227   0.81156  -0.17376
C          C       0.42335   0.78949   0.86267   0.07089
C          C       0.54967   0.81488   0.68161  -0.15644
C          C       0.58371   0.95822   0.07046  -0.15465
C          C       0.51744   0.94610   0.01085  -0.14292
C          C       0.56355   0.62558   0.97364   0.08469
C          C       0.57133   0.58805   0.98899  -0.14573
C          C       0.58824   0.62025   0.08415  -0.14698
C          C       0.55624   0.74348   0.67835  -0.14877
C          C       0.21869   0.77170   0.58470   0.59620
C          C       0.22005   0.77281   0.64929   0.01034
C          C       0.97433   0.53894   0.06340   0.59255
C          C       0.02440   0.57919   0.04857   0.01953
C          C       0.41498   0.99882   0.04535   0.01939
C          C       0.22839   0.62719   0.81211  -0.18258
C          C       0.45519   0.04758   0.06384   0.58035
C          C       0.08639   0.66255   0.05254   0.07583
C          C       0.34298   0.92347   0.06500   0.08039
C          C       0.09865   0.61003   0.99606   0.08564
C          C       0.17754   0.51012   0.88608   0.54150
C          C       0.20983   0.67631   0.88549   0.55226
C          C       0.25632   0.81313   0.73755   0.08777
C          C       0.19404   0.55833   0.86214   0.06945
C          C       0.18737   0.73761   0.74089   0.08575
C          C       0.21771   0.57860   0.81166  -0.17356
C          C       0.21042   0.63378   0.86267   0.07079
C          C       0.18511   0.73456   0.68167  -0.15448
C          C       0.04176   0.62560   0.07068  -0.15384
C          C       0.05381   0.57142   0.01112  -0.14508
C          C       0.37458   0.93795   0.97360   0.08432
C          C       0.41199   0.98339   0.98890  -0.14607
C          C       0.37974   0.96800   0.08402  -0.14830
C          C       0.25649   0.81259   0.67821  -0.14833
C          C       0.55302   0.77211   0.08470   0.59610
C          C       0.55301   0.77328   0.14932   0.01258
C          C       0.56421   0.53896   0.56323   0.59418
C          C       0.55455   0.57923   0.54823   0.01753
C          C       0.58384   0.99887   0.54538   0.01945
C          C       0.39862   0.62697   0.31208  -0.18385
C          C       0.59241   0.04762   0.56387   0.58030
C          C       0.57605   0.66259   0.55231   0.07670
C          C       0.58055   0.92357   0.56508   0.07996
C          C       0.51119   0.61013   0.49578   0.08615
C          C       0.33258   0.50994   0.38632   0.54164
C          C       0.46639   0.67619   0.38547   0.55224
C          C       0.55682   0.81328   0.23773   0.08845
C          C       0.36410   0.55822   0.36238   0.07088
C          C       0.55027   0.73778   0.24081   0.08595
C          C       0.36064   0.57838   0.31183  -0.17453
C          C       0.42323   0.63366   0.36264   0.06919
C          C       0.54976   0.73500   0.18157  -0.15531
C          C       0.58369   0.62561   0.57038  -0.15387
C          C       0.51740   0.57150   0.51073  -0.14436
C          C       0.56338   0.93802   0.47364   0.08512
C          C       0.57138   0.98344   0.48893  -0.14624
C          C       0.58825   0.96806   0.58409  -0.14769
C          C       0.55624   0.81295   0.17838  -0.14939
C          C       0.21853   0.44620   0.08472   0.59648
C          C       0.22001   0.44688   0.14933   0.01079
C          C       0.97451   0.43566   0.56330   0.59320
C          C       0.02449   0.44540   0.54833   0.01847
C          C       0.41498   0.41626   0.54544   0.02006
C          C       0.22846   0.60122   0.31208  -0.18431
C          C       0.45516   0.40765   0.56389   0.57950
C          C       0.08637   0.42391   0.55228   0.07659
C          C       0.34282   0.41922   0.56513   0.08127
C          C       0.09871   0.48873   0.49577   0.08685
C          C       0.17755   0.66736   0.38595   0.54248
C          C       0.20998   0.53352   0.38553   0.55295
C          C       0.25638   0.44319   0.23770   0.08815
C          C       0.19406   0.63568   0.36203   0.06958
C          C       0.18745   0.44976   0.24085   0.08660
C          C       0.21773   0.63910   0.31156  -0.17374
C          C       0.21052   0.57666   0.36267   0.07096
C          C       0.18512   0.45033   0.18161  -0.15475
C          C       0.04179   0.41630   0.57046  -0.15428
C          C       0.05390   0.48256   0.51085  -0.14281
C          C       0.37442   0.43645   0.47364   0.08468
C          C       0.41196   0.42867   0.48899  -0.14569
C          C       0.37975   0.41176   0.58415  -0.14701
C          C       0.25652   0.44376   0.17835  -0.14881
C          C       0.22831   0.78131   0.08470   0.59601
C          C       0.22719   0.77996   0.14929   0.01036
C          C       0.46106   0.02567   0.56340   0.59280
C          C       0.42081   0.97560   0.54857   0.01980
C          C       0.00117   0.58502   0.54535   0.01919
C          C       0.37281   0.77161   0.31211  -0.18268
C          C       0.95241   0.54481   0.56384   0.58060
C          C       0.33745   0.91362   0.55254   0.07605
C          C       0.07653   0.65702   0.56500   0.08061
C          C       0.38998   0.90135   0.49606   0.08572
C          C       0.48988   0.82246   0.38608   0.54135
C          C       0.32369   0.79017   0.38549   0.55241
C          C       0.18687   0.74368   0.23755   0.08779
C          C       0.44168   0.80596   0.36214   0.06970
C          C       0.26239   0.81263   0.24089   0.08507
C          C       0.42140   0.78230   0.31166  -0.17354
C          C       0.36623   0.78958   0.36267   0.07062
C          C       0.26545   0.81489   0.18167  -0.15420
C          C       0.37440   0.95824   0.57068  -0.15385
C          C       0.42858   0.94620   0.51112  -0.14516
C          C       0.06205   0.62542   0.47360   0.08452
C          C       0.01661   0.58801   0.48890  -0.14667
C          C       0.03200   0.62026   0.58402  -0.14861
C          C       0.18742   0.74351   0.17821  -0.14853
C          C       0.89540   0.78043   0.91790   0.59696
C          C       0.89451   0.78053   0.98261   0.00962
C          C       0.12847   0.76947   0.39682   0.59325
C          C       0.08792   0.77876   0.38154   0.01710
C          C       0.66759   0.74944   0.37922   0.02005
C          C       0.03890   0.93417   0.14469  -0.18548
C          C       0.61881   0.74058   0.39800   0.57944
C          C       0.00449   0.75718   0.38591   0.07629
C          C       0.74308   0.75295   0.39822   0.08147
C          C       0.05672   0.82213   0.32946   0.08559
C          C       0.15645   0.00032   0.21805   0.54391
C          C       0.99017   0.86707   0.21923   0.55113
C          C       0.85421   0.77684   0.07082   0.08650
C          C       0.10826   0.96881   0.19384   0.06925
C          C       0.92964   0.78338   0.07439   0.08584
C          C       0.08747   0.97220   0.14376  -0.17296
C          C       0.03277   0.90961   0.19520   0.07231
C          C       0.93275   0.78392   0.01512  -0.15470
C          C       0.04152   0.74946   0.40360  -0.15299
C          C       0.09543   0.81590   0.34411  -0.14393
C          C       0.72805   0.77005   0.30697   0.08428
C          C       0.68270   0.76197   0.32269  -0.14554
C          C       0.69866   0.74516   0.41763  -0.14680
C          C       0.85474   0.77731   0.01148  -0.14757
C          C       0.21965   0.11472   0.91786   0.59631
C          C       0.21954   0.11379   0.98256   0.00925
C          C       0.23036   0.35846   0.39681   0.59362
C          C       0.22095   0.30864   0.38136   0.01650
C          C       0.25058   0.91808   0.37904   0.02057
C          C       0.06596   0.10461   0.14461  -0.18572
C          C       0.25966   0.87830   0.39791   0.58086
C          C       0.24267   0.24690   0.38563   0.07559
C          C       0.24682   0.98994   0.39793   0.08179
C          C       0.17775   0.23418   0.32917   0.08531
C          C      -0.00042   0.15558   0.21826   0.54297
C          C       0.13299   0.12287   0.21920   0.55161
C          C       0.22328   0.07731   0.07087   0.08740
C          C       0.03113   0.13904   0.19387   0.06938
C          C       0.21670   0.14618   0.07423   0.08570
C          C       0.02788   0.11505   0.14369  -0.17670
C          C       0.09045   0.12295   0.19518   0.07136
C          C       0.21613   0.14867   0.01496  -0.15402
C          C       0.25028   0.29158   0.40342  -0.15360
C          C       0.18386   0.27907   0.34387  -0.14127
C          C       0.22973   0.95774   0.30673   0.08444
C          C       0.23797   0.92058   0.32251  -0.14632
C          C       0.25475   0.95341   0.41739  -0.14669
C          C       0.22278   0.07728   0.01154  -0.14908
C          C       0.88506   0.10465   0.91784   0.59756
C          C       0.88605   0.10548   0.98255   0.00952
C          C       0.64116   0.87174   0.39704   0.59271
C          C       0.69095   0.91225   0.38163   0.01714
C          C       0.08196   0.33232   0.37893   0.01915
C          C       0.89532   0.96115   0.14576  -0.18550
C          C       0.12174   0.38118   0.39788   0.58098
C          C       0.75278   0.99568   0.38596   0.07655
C          C       0.01011   0.25662   0.39766   0.08121
C          C       0.76545   0.94344   0.32953   0.08801
C          C       0.84414   0.84362   0.21872   0.54283
C          C       0.87728   0.01014   0.21983   0.55129
C          C       0.92265   0.14576   0.07079   0.08718
C          C       0.86095   0.89197   0.19510   0.06994
C          C       0.85373   0.07032   0.07430   0.08678
C          C       0.88470   0.91259   0.14482  -0.17259
C          C       0.87737   0.96744   0.19650   0.07237
C          C       0.85121   0.06723   0.01503  -0.15568
C          C       0.70805   0.95864   0.40368  -0.15272
C          C       0.72053   0.90472   0.34419  -0.14480
C          C       0.04248   0.27185   0.30653   0.08439
C          C       0.07954   0.31728   0.32239  -0.14542
C          C       0.04655   0.30110   0.41718  -0.14724
C          C       0.92261   0.14524   0.01146  -0.14778
C          C       0.21957   0.10460   0.41790   0.59703
C          C       0.21947   0.10548   0.48261   0.00948
C          C       0.23053   0.87153   0.89682   0.59309
C          C       0.22124   0.91209   0.88154   0.01703
C          C       0.25057   0.33242   0.87922   0.02008
C          C       0.06584   0.96111   0.64469  -0.18533
C          C       0.25942   0.38119   0.89800   0.57943
C          C       0.24282   0.99552   0.88591   0.07646
C          C       0.24705   0.25693   0.89822   0.08139
C          C       0.17788   0.94328   0.82946   0.08520
C          C      -0.00032   0.84355   0.71805   0.54373
C          C       0.13293   0.00983   0.71923   0.55126
C          C       0.22316   0.14579   0.57082   0.08622
C          C       0.03119   0.89175   0.69384   0.06898
C          C       0.21663   0.07036   0.57439   0.08576
C          C       0.02781   0.91254   0.64376  -0.17491
C          C       0.09040   0.96723   0.69520   0.07269
C          C       0.21608   0.06725   0.51512  -0.15455
C          C       0.25054   0.95849   0.90360  -0.15308
C          C       0.18410   0.90458   0.84411  -0.14403
C          C       0.22996   0.27195   0.80697   0.08404
C          C       0.23804   0.31730   0.82269  -0.14554
C          C       0.25484   0.30134   0.91763  -0.14678
C          C       0.22269   0.14526   0.51148  -0.14751
C          C       0.88528   0.78036   0.41786   0.59615
C          C       0.88621   0.78047   0.48256   0.00920
C          C       0.64154   0.76964   0.89681   0.59339
C          C       0.69136   0.77906   0.88136   0.01673
C          C       0.08192   0.74942   0.87904   0.02051
C          C       0.89539   0.93404   0.64461  -0.18588
C          C       0.12170   0.74034   0.89791   0.58089
C          C       0.75310   0.75733   0.88563   0.07570
C          C       0.01006   0.75318   0.89793   0.08164
C          C       0.76582   0.82225   0.82917   0.08577
C          C       0.84442   0.00042   0.71826   0.54325
C          C       0.87713   0.86701   0.71920   0.55181
C          C       0.92269   0.77673   0.57087   0.08711
C          C       0.86096   0.96887   0.69387   0.06995
C          C       0.85381   0.78330   0.57423   0.08590
C          C       0.88495   0.97213   0.64369  -0.17665
C          C       0.87705   0.90955   0.69518   0.07114
C          C       0.85133   0.78387   0.51496  -0.15398
C          C       0.70842   0.74972   0.90342  -0.15382
C          C       0.72093   0.81614   0.84387  -0.14147
C          C       0.04227   0.77027   0.80673   0.08459
C          C       0.07942   0.76203   0.82251  -0.14626
C          C       0.04659   0.74525   0.91739  -0.14662
C          C       0.92272   0.77722   0.51154  -0.14896
C          C       0.89535   0.11494   0.41784   0.59761
C          C       0.89451   0.11395   0.48255   0.00951
C          C       0.12826   0.35885   0.89704   0.59268
C          C       0.08775   0.30905   0.88163   0.01724
C          C       0.66768   0.91804   0.87893   0.01900
C          C       0.03885   0.10468   0.64576  -0.18565
C          C       0.61882   0.87827   0.89788   0.58087
C          C       0.00433   0.24722   0.88596   0.07637
C          C       0.74338   0.98989   0.89766   0.08146
C          C       0.05657   0.23455   0.82953   0.08909
C          C       0.15638   0.15586   0.71872   0.54276
C          C       0.98986   0.12272   0.71983   0.55082
C          C       0.85424   0.07735   0.57079   0.08723
C          C       0.10803   0.13905   0.69510   0.06996
C          C       0.92968   0.14627   0.57430   0.08683
C          C       0.08741   0.11530   0.64482  -0.17270
C          C       0.03256   0.12263   0.69650   0.07252
C          C       0.93277   0.14879   0.51503  -0.15562
C          C       0.04137   0.29195   0.90368  -0.15281
C          C       0.09528   0.27948   0.84419  -0.14487
C          C       0.72815   0.95753   0.80653   0.08429
C          C       0.68272   0.92046   0.82240  -0.14536
C          C       0.69890   0.95346   0.91718  -0.14731
C          C       0.85476   0.07739   0.51146  -0.14785
C          C       0.56187   0.11380   0.25034   0.59584
C          C       0.56073   0.11401   0.31494   0.01191
C          C       0.79452   0.10239   0.73028   0.59293
C          C       0.75410   0.11190   0.71505   0.01747
C          C       0.33362   0.08211   0.71172   0.02046
C          C       0.70610   0.26818   0.47800  -0.18095
C          C       0.28470   0.07313   0.73026   0.58014
C          C       0.67068   0.09053   0.71870   0.07479
C          C       0.40930   0.08612   0.73106   0.08098
C          C       0.72332   0.15537   0.66239   0.08619
C          C       0.82323   0.33400   0.55192   0.54285
C          C       0.65696   0.20012   0.55119   0.55208
C          C       0.52033   0.10995   0.40314   0.08773
C          C       0.77491   0.30256   0.52813   0.07069
C          C       0.59586   0.11662   0.40665   0.08587
C          C       0.75469   0.30614   0.47771  -0.17479
C          C       0.69946   0.24344   0.52847   0.07039
C          C       0.59897   0.11739   0.34741  -0.15535
C          C       0.70758   0.08277   0.73691  -0.15293
C          C       0.76189   0.14909   0.67760  -0.14539
C          C       0.39445   0.10330   0.63977   0.08299
C          C       0.34894   0.09489   0.65528  -0.14521
C          C       0.36469   0.07795   0.75024  -0.14695
C          C       0.52091   0.11063   0.34380  -0.14883
C          C       0.88616   0.44820   0.25028   0.59603
C          C       0.88600   0.44682   0.31491   0.01077
C          C       0.89728   0.69206   0.73031   0.59321
C          C       0.88791   0.64221   0.71501   0.01828
C          C       0.91783   0.25173   0.71180   0.02047
C          C       0.73168   0.43800   0.47803  -0.18419
C          C       0.92660   0.21164   0.73032   0.58064
C          C       0.90941   0.58026   0.71865   0.07985
C          C       0.91416   0.32358   0.73115   0.08025
C          C       0.84453   0.56799   0.66233   0.09038
C          C       0.66596   0.48937   0.55200   0.54121
C          C       0.79975   0.45686   0.55121   0.55254
C          C       0.89002   0.41044   0.40313   0.08743
C          C       0.69733   0.47240   0.52822   0.07161
C          C       0.88333   0.47929   0.40660   0.08566
C          C       0.69374   0.44865   0.47777  -0.17484
C          C       0.75643   0.45605   0.52850   0.06885
C          C       0.88259   0.48165   0.34736  -0.15488
C          C       0.91712   0.62489   0.73685  -0.15380
C          C       0.85076   0.61280   0.67753  -0.14511
C          C       0.89702   0.29172   0.63984   0.08467
C          C       0.90518   0.25445   0.65534  -0.14724
C          C       0.92210   0.28698   0.75034  -0.14746
C          C       0.88938   0.41038   0.34379  -0.14743
C          C       0.55190   0.43816   0.25035   0.59564
C          C       0.55323   0.43929   0.31495   0.01137
C          C       0.30796   0.20521   0.73033   0.59288
C          C       0.35779   0.24572   0.71496   0.01823
C          C       0.74833   0.66625   0.71180   0.02035
C          C       0.56216   0.29414   0.47781  -0.18369
C          C       0.78844   0.71513   0.73031   0.57923
C          C       0.41975   0.32917   0.71854   0.08019
C          C       0.67640   0.59075   0.73110   0.08071
C          C       0.43198   0.27656   0.66223   0.08949
C          C       0.51071   0.17688   0.55133   0.54342
C          C       0.54321   0.34307   0.55119   0.55159
C          C       0.58957   0.47971   0.40314   0.08740
C          C       0.52765   0.22521   0.52764   0.06973
C          C       0.52067   0.40417   0.40662   0.08546
C          C       0.55152   0.24556   0.47731  -0.17361
C          C       0.54402   0.30064   0.52832   0.07076
C          C       0.51835   0.40105   0.34739  -0.15739
C          C       0.37512   0.29224   0.73678  -0.15344
C          C       0.38717   0.23797   0.67748  -0.14561
C          C       0.70835   0.60544   0.63984   0.08365
C          C       0.74566   0.65086   0.65537  -0.14583
C          C       0.71304   0.63526   0.75031  -0.14686
C          C       0.58967   0.47912   0.34381  -0.14814
C          C       0.88620   0.43813   0.75034   0.59573
C          C       0.88599   0.43927   0.81495   0.01188
C          C       0.89761   0.20548   0.23028   0.59305
C          C       0.88810   0.24590   0.21505   0.01740
C          C       0.91789   0.66638   0.21172   0.02043
C          C       0.73182   0.29390   0.97800  -0.18085
C          C       0.92687   0.71530   0.23026   0.58009
C          C       0.90947   0.32932   0.21870   0.07478
C          C       0.91388   0.59070   0.23106   0.08090
C          C       0.84463   0.27668   0.16239   0.08904
C          C       0.66600   0.17677   0.05191   0.54278
C          C       0.79988   0.34304   0.05119   0.55212
C          C       0.89005   0.47967   0.90314   0.08768
C          C       0.69744   0.22509   0.02813   0.07064
C          C       0.88338   0.40414   0.90665   0.08593
C          C       0.69386   0.24531   0.97771  -0.17486
C          C       0.75656   0.30054   0.02847   0.07036
C          C       0.88260   0.40104   0.84741  -0.15498
C          C       0.91723   0.29242   0.23691  -0.15296
C          C       0.85091   0.23811   0.17760  -0.14512
C          C       0.89670   0.60555   0.13977   0.08305
C          C       0.90511   0.65106   0.15528  -0.14527
C          C       0.92205   0.63531   0.25024  -0.14692
C          C       0.88937   0.47909   0.84380  -0.14882
C          C       0.55180   0.11384   0.75029   0.59618
C          C       0.55318   0.11400   0.81491   0.01076
C          C       0.30794   0.10272   0.23031   0.59357
C          C       0.35779   0.11209   0.21501   0.01813
C          C       0.74827   0.08216   0.21180   0.02060
C          C       0.56200   0.26832   0.97803  -0.18442
C          C       0.78836   0.07340   0.23032   0.58048
C          C       0.41974   0.09059   0.21865   0.07600
C          C       0.67642   0.08583   0.23114   0.08025
C          C       0.43202   0.15547   0.16233   0.09043
C          C       0.51064   0.33404   0.05200   0.54118
C          C       0.54314   0.20025   0.05121   0.55234
C          C       0.58956   0.10998   0.90313   0.08741
C          C       0.52760   0.30267   0.02822   0.07145
C          C       0.52071   0.11667   0.90660   0.08561
C          C       0.55136   0.30626   0.97777  -0.17466
C          C       0.54396   0.24357   0.02850   0.06915
C          C       0.51835   0.11741   0.84736  -0.15486
C          C       0.37511   0.08288   0.23685  -0.15389
C          C       0.38720   0.14924   0.17753  -0.14513
C          C       0.70828   0.10298   0.13984   0.08462
C          C       0.74555   0.09482   0.15534  -0.14717
C          C       0.71302   0.07790   0.25034  -0.14741
C          C       0.58962   0.11062   0.84379  -0.14735
C          C       0.56184   0.44810   0.75035   0.59568
C          C       0.56071   0.44677   0.81495   0.01142
C          C       0.79479   0.69205   0.23033   0.59301
C          C       0.75428   0.64221   0.21496   0.01826
C          C       0.33376   0.25167   0.21180   0.02039
C          C       0.70586   0.43784   0.97781  -0.18359
C          C       0.28488   0.21156   0.23031   0.57916
C          C       0.67083   0.58025   0.21854   0.08020
C          C       0.40926   0.32360   0.23110   0.08072
C          C       0.72344   0.56802   0.16223   0.08956
C          C       0.82312   0.48929   0.05133   0.54344
C          C       0.65693   0.45680   0.05119   0.55163
C          C       0.52029   0.41043   0.90314   0.08747
C          C       0.77479   0.47235   0.02764   0.06977
C          C       0.59583   0.47933   0.90663   0.08546
C          C       0.75444   0.44848   0.97731  -0.17356
C          C       0.69936   0.45598   0.02832   0.07078
C          C       0.59895   0.48166   0.84739  -0.15508
C          C       0.70776   0.62488   0.23678  -0.15335
C          C       0.76203   0.61283   0.17748  -0.14582
C          C       0.39456   0.29165   0.13984   0.08367
C          C       0.34914   0.25434   0.15537  -0.14582
C          C       0.36474   0.28696   0.25031  -0.14687
C          C       0.52088   0.41033   0.84381  -0.14820
N          N       0.22358   0.44594   0.76854  -0.20450
N          N       0.09159   0.43206   0.01090  -0.21355
N          N       0.34476   0.45938   0.01540  -0.22666
N          N       0.55412   0.77773   0.76854  -0.20441
N          N       0.56828   0.65978   0.01092  -0.21232
N          N       0.54073   0.88562   0.01527  -0.22685
N          N       0.22221   0.77637   0.76847  -0.20367
N          N       0.34043   0.90829   0.01084  -0.21233
N          N       0.11441   0.65517   0.01559  -0.22689
N          N       0.55406   0.77642   0.26854  -0.20455
N          N       0.56794   0.90841   0.51090  -0.21410
N          N       0.54063   0.65524   0.51539  -0.22645
N          N       0.22227   0.44588   0.26854  -0.20453
N          N       0.34022   0.43172   0.51092  -0.21236
N          N       0.11439   0.45927   0.51527  -0.22647
N          N       0.22363   0.77780   0.26847  -0.20397
N          N       0.09172   0.65958   0.51084  -0.21219
N          N       0.34483   0.88560   0.51559  -0.22750
N          N       0.89091   0.77955   0.10194  -0.20338
N          N       0.75787   0.76553   0.34394  -0.21374
N          N       0.01168   0.79274   0.34928  -0.22667
N          N       0.22055   0.11132   0.10186  -0.20440
N          N       0.23417   0.99206   0.34364  -0.21295
N          N       0.20718   0.21854   0.34894  -0.22641
N          N       0.88865   0.10906   0.10187  -0.20435
N          N       0.00814   0.24188   0.34340  -0.21330
N          N       0.78112   0.98849   0.34932  -0.22581
N          N       0.22045   0.10909   0.60194  -0.20323
N          N       0.23447   0.24213   0.84394  -0.21365
N          N       0.20726   0.98833   0.84928  -0.22611
N          N       0.88868   0.77946   0.60186  -0.20428
N          N       0.00794   0.76584   0.84364  -0.21334
N          N       0.78145   0.79283   0.84894  -0.22682
N          N       0.89094   0.11135   0.60187  -0.20436
N          N       0.75812   0.99186   0.84340  -0.21315
N          N       0.01151   0.21889   0.84932  -0.22619
N          N       0.55707   0.11266   0.43418  -0.20398
N          N       0.42429   0.09895   0.67687  -0.21340
N          N       0.67810   0.12601   0.68181  -0.22635
N          N       0.88727   0.44444   0.43416  -0.20383
N          N       0.90149   0.32594   0.67694  -0.21377
N          N       0.87393   0.55218   0.68177  -0.22671
N          N       0.55552   0.44297   0.43416  -0.20371
N          N       0.67405   0.57573   0.67690  -0.21364
N          N       0.44780   0.32177   0.68164  -0.22612
N          N       0.88734   0.44294   0.93418  -0.20405
N          N       0.90105   0.57571   0.17687  -0.21348
N          N       0.87399   0.32189   0.18181  -0.22608
N          N       0.55556   0.11273   0.93416  -0.20368
N          N       0.67406   0.09851   0.17694  -0.21384
N          N       0.44782   0.12607   0.18177  -0.22692
N          N       0.55703   0.44448   0.93416  -0.20367
N          N       0.42428   0.32595   0.17690  -0.21342
N          N       0.67823   0.55220   0.18164  -0.22618
O          O       0.22681   0.46258   0.94602  -0.83755
O          O       0.92234   0.40221   0.02547  -0.56774
O          O       0.28652   0.51645   0.85396  -0.56178
O          O       0.45439   0.41125   0.10864  -0.56174
O          O       0.52153   0.69747   0.85195  -0.58350
O          O       0.49627   0.45231   0.02902  -0.54405
O          O       0.26253   0.44394   0.56238  -0.55188
O          O       0.40814   0.59777   0.89411  -0.09227
O          O       0.32864   0.51843   0.93419  -0.56196
O          O       0.19399   0.44978   0.56036  -0.55255
O          O       0.94553   0.40622   0.11770  -0.54410
O          O       0.49621   0.66289   0.93955  -0.55339
O          O       0.26519   0.41151   0.85982  -0.56782
O          O       0.12138   0.37698   0.94208  -0.56115
O          O       0.17627   0.47871   0.85179  -0.58220
O          O       0.16402   0.37715   0.86353  -0.54428
O          O       0.18109   0.44369   0.06235  -0.55124
O          O       0.25462   0.44782   0.06029  -0.55318
O          O       0.26061   0.38777   0.95188  -0.54482
O          O       0.16702   0.50404   0.93937  -0.55233
O          O       0.53848   0.76443   0.94600  -0.83785
O          O       0.59780   0.52029   0.02547  -0.56778
O          O       0.48357   0.76986   0.85399  -0.56201
O          O       0.58904   0.04351   0.10857  -0.56172
O          O       0.30247   0.82376   0.85173  -0.58176
O          O       0.54770   0.04411   0.02909  -0.54363
O          O       0.55632   0.81892   0.56235  -0.55125
O          O       0.40234   0.81037   0.89397  -0.09184
O          O       0.48176   0.80997   0.93426  -0.56152
O          O       0.55218   0.74538   0.56029  -0.55354
O          O       0.59377   0.53935   0.11772  -0.54403
O          O       0.33714   0.83295   0.93925  -0.55258
O          O       0.58832   0.85384   0.85982  -0.56806
O          O       0.62352   0.74441   0.94176  -0.56254
O          O       0.62307   0.78706   0.86353  -0.54280
O          O       0.55606   0.73747   0.06238  -0.55197
O          O       0.55022   0.80602   0.06036  -0.55246
O          O       0.61236   0.87286   0.95179  -0.54523
O          O       0.23565   0.77301   0.94593  -0.83713
O          O       0.47979   0.07767   0.02547  -0.56808
O          O       0.23007   0.71361   0.85399  -0.56142
O          O       0.95617   0.54554   0.10855  -0.56202
O          O       0.95585   0.50375   0.02907  -0.54376
O          O       0.18187   0.73593   0.56242  -0.55082
O          O       0.18958   0.59190   0.89402  -0.09216
O          O       0.18979   0.67150   0.93418  -0.56223
O          O       0.25426   0.80671   0.56019  -0.55346
O          O       0.46072   0.05440   0.11768  -0.54425
O          O       0.14605   0.73415   0.85988  -0.56902
O          O       0.25580   0.87838   0.94160  -0.56207
O          O       0.21281   0.83570   0.86337  -0.54551
O          O       0.26407   0.81813   0.06242  -0.55038
O          O       0.19329   0.74575   0.06019  -0.55360
O          O       0.12717   0.73941   0.95183  -0.54524
O          O       0.53742   0.77320   0.44602  -0.83743
O          O       0.59779   0.07766   0.52547  -0.56777
O          O       0.48355   0.71348   0.35396  -0.56165
O          O       0.58875   0.54561   0.60864  -0.56157
O          O       0.30253   0.47847   0.35195  -0.58356
O          O       0.54769   0.50373   0.52902  -0.54418
O          O       0.40223   0.59186   0.39411  -0.09226
O          O       0.48158   0.67136   0.43419  -0.56205
O          O       0.59378   0.05447   0.61770  -0.54401
O          O       0.33711   0.50379   0.43955  -0.55327
O          O       0.58850   0.73481   0.35982  -0.56786
O          O       0.62302   0.87863   0.44208  -0.56103
O          O       0.52129   0.82373   0.35179  -0.58196
O          O       0.62285   0.83598   0.36353  -0.54433
O          O       0.61223   0.73940   0.45188  -0.54477
O          O       0.49596   0.83298   0.43937  -0.55233
O          O       0.23557   0.46152   0.44600  -0.83790
O          O       0.47972   0.40220   0.52547  -0.56784
O          O       0.23014   0.51644   0.35399  -0.56184
O          O       0.95649   0.41096   0.60857  -0.56161
O          O       0.17625   0.69754   0.35173  -0.58191
O          O       0.95588   0.45230   0.52909  -0.54345
O          O       0.18964   0.59766   0.39397  -0.09211
O          O       0.19004   0.51825   0.43426  -0.56168
O          O       0.46065   0.40624   0.61772  -0.54407
O          O       0.16706   0.66286   0.43925  -0.55276
O          O       0.14616   0.41168   0.35982  -0.56811
O          O       0.25559   0.37649   0.44176  -0.56247
O          O       0.21294   0.37693   0.36353  -0.54312
O          O       0.12714   0.38764   0.45179  -0.54531
O          O       0.22699   0.76435   0.44593  -0.83711
O          O       0.92233   0.52021   0.52547  -0.56805
O          O       0.28639   0.76993   0.35399  -0.56161
O          O       0.45446   0.04383   0.60855  -0.56214
O          O       0.49625   0.04415   0.52907  -0.54372
O          O       0.40810   0.81042   0.39402  -0.09207
O          O       0.32851   0.81021   0.43418  -0.56213
O          O       0.94559   0.53929   0.61768  -0.54434
O          O       0.26586   0.85395   0.35988  -0.56908
O          O       0.12162   0.74420   0.44160  -0.56238
O          O       0.16430   0.78719   0.36337  -0.54530
O          O       0.26059   0.87284   0.45183  -0.54523
O          O       0.89300   0.79557   0.27988  -0.83878
O          O       0.95250   0.85019   0.18839  -0.56149
O          O       0.18810   0.03105   0.18457  -0.58105
O          O       0.93053   0.77893   0.89465  -0.55268
O          O       0.07495   0.93068   0.22580  -0.09230
O          O       0.99508   0.85221   0.26817  -0.56186
O          O       0.86031   0.78158   0.89424  -0.55319
O          O       0.16236   0.99518   0.27120  -0.55402
O          O       0.93195   0.74516   0.19177  -0.56607
O          O       0.78764   0.71046   0.27486  -0.56220
O          O       0.84329   0.81219   0.18495  -0.58138
O          O       0.83090   0.71024   0.19733  -0.54389
O          O       0.84868   0.77897   0.39462  -0.55197
O          O       0.92145   0.78139   0.39422  -0.55352
O          O       0.92872   0.72232   0.28408  -0.54521
O          O       0.83282   0.83736   0.27174  -0.55288
O          O       0.20441   0.09700   0.27983  -0.84233
O          O       0.14992   0.10223   0.18823  -0.56233
O          O       0.96903   0.15693   0.18487  -0.58109
O          O       0.22103   0.15132   0.89462  -0.55216
O          O       0.06928   0.14390   0.22583  -0.09111
O          O       0.14785   0.14236   0.26822  -0.56123
O          O       0.21861   0.07855   0.89422  -0.55353
O          O       0.00459   0.16621   0.27152  -0.55324
O          O       0.25505   0.18683   0.19176  -0.56595
O          O       0.28947   0.07707   0.27478  -0.56324
O          O       0.28978   0.12069   0.19733  -0.54340
O          O       0.22108   0.06946   0.39465  -0.55250
O          O       0.21842   0.13969   0.39424  -0.55346
O          O       0.27784   0.20620   0.28412  -0.54548
O          O       0.90260   0.10729   0.27986  -0.83786
O          O       0.89775   0.04752   0.18847  -0.56140
O          O       0.84843   0.06947   0.89460  -0.55284
O          O       0.85644   0.92535   0.22737  -0.09225
O          O       0.85758   0.00557   0.26867  -0.56096
O          O       0.92127   0.13981   0.89423  -0.55469
O          O       0.81312   0.06839   0.19177  -0.56660
O          O       0.92323   0.21261   0.27477  -0.56275
O          O       0.87972   0.16941   0.19724  -0.54329
O          O       0.93053   0.15157   0.39460  -0.55287
O          O       0.86019   0.07872   0.39423  -0.55465
O          O       0.79363   0.07163   0.28415  -0.54578
O          O       0.20443   0.10700   0.77988  -0.83851
O          O       0.14981   0.04750   0.68840  -0.56170
O          O       0.96895   0.81190   0.68457  -0.58130
O          O       0.06933   0.92506   0.72580  -0.09247
O          O       0.14779   0.00492   0.76817  -0.56169
O          O       0.00482   0.83765   0.77120  -0.55381
O          O       0.25484   0.06804   0.69177  -0.56618
O          O       0.28954   0.21236   0.77486  -0.56214
O          O       0.18782   0.15671   0.68495  -0.58124
O          O       0.28976   0.16910   0.69734  -0.54380
O          O       0.27768   0.07128   0.78408  -0.54515
O          O       0.16264   0.16718   0.77174  -0.55288
O          O       0.90300   0.79559   0.77983  -0.84243
O          O       0.89777   0.85008   0.68823  -0.56265
O          O       0.84307   0.03097   0.68487  -0.58111
O          O       0.85610   0.93073   0.72583  -0.09122
O          O       0.85764   0.85215   0.76822  -0.56114
O          O       0.83378   0.99542   0.77152  -0.55346
O          O       0.81317   0.74495   0.69176  -0.56577
O          O       0.92293   0.71053   0.77478  -0.56317
O          O       0.87931   0.71022   0.69733  -0.54319
O          O       0.79380   0.72216   0.78412  -0.54558
O          O       0.89271   0.09740   0.77986  -0.83787
O          O       0.95248   0.10226   0.68847  -0.56136
O          O       0.07466   0.14357   0.72737  -0.09232
O          O       0.99443   0.14242   0.76867  -0.56076
O          O       0.93161   0.18688   0.69177  -0.56684
O          O       0.78739   0.07677   0.77477  -0.56261
O          O       0.83059   0.12028   0.69724  -0.54333
O          O       0.92837   0.20637   0.78415  -0.54575
O          O       0.55949   0.12910   0.61177  -0.83869
O          O       0.61950   0.18328   0.51999  -0.56162
O          O       0.85464   0.36408   0.51755  -0.58264
O          O       0.59732   0.11216   0.22807  -0.55089
O          O       0.74133   0.26437   0.55982  -0.09269
O          O       0.66193   0.18449   0.59957  -0.56221
O          O       0.52709   0.11489   0.22592  -0.55257
O          O       0.82941   0.32939   0.60513  -0.55268
O          O       0.50954   0.14546   0.51725  -0.58104
O          O       0.51480   0.11242   0.72804  -0.55161
O          O       0.58762   0.11480   0.72589  -0.55229
O          O       0.49966   0.17076   0.60448  -0.55406
O          O       0.87094   0.43083   0.61174  -0.83933
O          O       0.81661   0.43627   0.52006  -0.56215
O          O       0.63601   0.49088   0.51758  -0.58220
O          O       0.88758   0.48520   0.22804  -0.55147
O          O       0.73552   0.47697   0.55988  -0.09168
O          O       0.81535   0.47750   0.59958  -0.56155
O          O       0.88520   0.41238   0.22589  -0.55226
O          O       0.67049   0.50004   0.60524  -0.55278
O          O       0.88784   0.40268   0.72807  -0.55103
O          O       0.88511   0.47292   0.72592  -0.55207
O          O       0.56913   0.44043   0.61169  -0.84214
O          O       0.56360   0.38050   0.51993  -0.56156
O          O       0.51476   0.40276   0.22806  -0.55090
O          O       0.52306   0.25870   0.55954  -0.09164
O          O       0.52279   0.33804   0.59969  -0.56073
O          O       0.58784   0.47290   0.22596  -0.55246
O          O       0.59724   0.48524   0.72806  -0.55061
O          O       0.52710   0.41216   0.72596  -0.55258
O          O       0.87090   0.44051   0.11177  -0.83879
O          O       0.81672   0.38050   0.01999  -0.56161
O          O       0.63592   0.14536   0.01755  -0.58255
O          O       0.73563   0.25867   0.05982  -0.09264
O          O       0.81551   0.33807   0.09957  -0.56146
O          O       0.67061   0.17059   0.10513  -0.55265
O          O       0.85454   0.49047   0.01725  -0.58103
O          O       0.82924   0.50034   0.10448  -0.55404
O          O       0.56917   0.12906   0.11174  -0.83908
O          O       0.56373   0.18339   0.02006  -0.56191
O          O       0.50912   0.36399   0.01758  -0.58235
O          O       0.52303   0.26448   0.05988  -0.09177
O          O       0.52250   0.18465   0.09958  -0.56164
O          O       0.49996   0.32951   0.10524  -0.55279
O          O       0.55957   0.43087   0.11169  -0.83932
O          O       0.61950   0.43640   0.01992  -0.56159
O          O       0.74130   0.47694   0.05954  -0.09165
O          O       0.66196   0.47721   0.09969  -0.56081

