data_crystal

_audit_creation_method 'AiiDA-DDEC plugin'

_cell_length_a        31.98864
_cell_length_b        31.99761
_cell_length_c        23.38395

_cell_angle_alpha     89.99301
_cell_angle_beta     90.00454
_cell_angle_gamma     119.97838

_symmetry_space_group_name_Hall 'P 1'
_symmetry_space_group_name_H-M  'P 1'

loop_
_symmetry_equiv_pos_as_xyz
 'x,y,z'

loop_
_atom_site_label
_atom_site_type_symbol
_atom_site_fract_x
_atom_site_fract_y
_atom_site_fract_z
_atom_site_charge
Co         Co      0.22362   0.04714   0.88710   1.00488
Co         Co      0.20903   0.16156   0.88897   1.01452
Co         Co      0.22082   0.11050   0.76523   1.05572
Co         Co      0.95292   0.79119   0.88869   1.01516
Co         Co      0.50484   0.12408   0.72208   1.01596
Co         Co      0.28627   0.82841   0.05518   1.01490
Co         Co      0.88956   0.78014   0.76475   1.05606
Co         Co      0.21949   0.11004   0.26504   1.05767
Co         Co      0.22285   0.77610   0.93148   1.05860
Co         Co      0.95313   0.17659   0.88684   1.00474
Co         Co      0.83814   0.04723   0.88894   1.01525
Co         Co      0.89056   0.11003   0.76513   1.05722
Co         Co      0.87579   0.38054   0.72203   1.01455
Co         Co      0.17160   0.45775   0.05508   1.01583
Co         Co      0.88964   0.11044   0.26523   1.05782
Co         Co      0.22391   0.44680   0.93139   1.05516
Co         Co      0.82355   0.77629   0.88705   1.00553
Co         Co      0.61950   0.49518   0.72201   1.01455
Co         Co      0.54271   0.71443   0.05528   1.01521
Co         Co      0.89064   0.78015   0.26484   1.05531
Co         Co      0.55283   0.77677   0.93141   1.05802
Co         Co      0.95276   0.77631   0.38704   1.00533
Co         Co      0.83820   0.79120   0.38864   1.01477
Co         Co      0.20929   0.04739   0.38878   1.01486
Co         Co      0.87581   0.49517   0.22216   1.01486
Co         Co      0.17159   0.71427   0.55543   1.01724
Co         Co      0.22395   0.77677   0.43154   1.05677
Co         Co      0.82360   0.04712   0.38716   1.00487
Co         Co      0.95276   0.16161   0.38909   1.01559
Co         Co      0.61962   0.12446   0.22180   1.01496
Co         Co      0.54255   0.82851   0.55531   1.01757
Co         Co      0.55285   0.77604   0.43154   1.05530
Co         Co      0.22358   0.17664   0.38683   1.00507
Co         Co      0.50487   0.38055   0.22216   1.01267
Co         Co      0.28596   0.45756   0.55541   1.01566
Co         Co      0.22323   0.44723   0.43146   1.05760
Co         Co      0.89033   0.38036   0.22075   1.00547
Co         Co      0.88618   0.44277   0.09854   1.05637
Co         Co      0.55621   0.11346   0.09823   1.05421
Co         Co      0.88619   0.44335   0.59853   1.05667
Co         Co      0.61971   0.51002   0.22078   1.00750
Co         Co      0.55711   0.44338   0.09859   1.05803
Co         Co      0.55661   0.44273   0.59857   1.05624
Co         Co      0.49019   0.10941   0.22092   1.00509
Co         Co      0.55732   0.11377   0.59859   1.05415
Co         Co      0.61961   0.10950   0.72079   1.00480
Co         Co      0.49002   0.38043   0.72079   1.00486
Co         Co      0.89052   0.51006   0.72078   1.00583
Co         Co      0.55708   0.71385   0.55381   1.00381
Co         Co      0.28617   0.84330   0.55386   1.00494
Co         Co      0.15677   0.44301   0.55381   1.00483
Co         Co      0.28617   0.44288   0.05419   1.00251
Co         Co      0.15673   0.71385   0.05423   1.00296
Co         Co      0.55704   0.84335   0.05375   1.00424
H          H       0.35221   0.05360   0.84112   0.13140
H          H       0.43459   0.06997   0.81007   0.10197
H          H       0.37415   0.17428   0.73825   0.12843
H          H       0.00829   0.92555   0.69104   0.15078
H          H       0.21621   0.95822   0.83831   0.09881
H          H       0.23456   0.89267   0.86606   0.13222
H          H       0.45651   0.18716   0.71222   0.11408
H          H       0.10226   0.00385   0.69209   0.15229
H          H       0.21369   0.03620   0.06504   0.12504
H          H       0.26523   0.95116   0.03596   0.13180
H          H       0.24798   0.01627   0.00148   0.09432
H          H       0.21764   0.04267   0.17190   0.10613
H          H       0.22706   0.17682   0.05966   0.12470
H          H       0.22757   0.17674   0.16712   0.10790
H          H       0.17434   0.08040   0.85180   0.36115
H          H       0.94637   0.29835   0.84107   0.13167
H          H       0.93001   0.36435   0.81007   0.10122
H          H       0.82566   0.19983   0.73811   0.12884
H          H       0.07433   0.08273   0.69090   0.15403
H          H       0.04187   0.25817   0.83835   0.09892
H          H       0.10734   0.34195   0.86614   0.13239
H          H       0.81277   0.26935   0.71220   0.11349
H          H       0.99606   0.09844   0.69212   0.15255
H          H       0.96381   0.17767   0.06484   0.12220
H          H       0.04877   0.31400   0.03607   0.13208
H          H       0.98375   0.23175   0.00147   0.09455
H          H       0.95764   0.17453   0.17191   0.10654
H          H       0.82321   0.05047   0.05941   0.12462
H          H       0.82374   0.05055   0.16699   0.10787
H          H       0.92009   0.09373   0.85149   0.36015
H          H       0.70135   0.64783   0.84113   0.13150
H          H       0.63544   0.56549   0.81002   0.10151
H          H       0.80011   0.62582   0.73824   0.12838
H          H       0.91726   0.99164   0.69109   0.15393
H          H       0.74186   0.78371   0.83825   0.09875
H          H       0.65802   0.76534   0.86618   0.13213
H          H       0.73066   0.54350   0.71212   0.10914
H          H       0.90152   0.89758   0.69217   0.15291
H          H       0.82238   0.78631   0.06497   0.12278
H          H       0.68617   0.73476   0.03600   0.13171
H          H       0.76849   0.75204   0.00134   0.09095
H          H       0.82501   0.78256   0.17188   0.10713
H          H       0.94962   0.77285   0.05961   0.12450
H          H       0.94923   0.77268   0.16696   0.10826
H          H       0.90576   0.82575   0.85128   0.35821
H          H       0.94651   0.64789   0.34107   0.13130
H          H       0.93010   0.56545   0.31016   0.10151
H          H       0.82574   0.62582   0.23820   0.12840
H          H       0.07441   0.99173   0.19107   0.15436
H          H       0.04174   0.78373   0.33823   0.09881
H          H       0.10726   0.76537   0.36616   0.13216
H          H       0.81291   0.54347   0.21221   0.11437
H          H       0.99625   0.89768   0.19229   0.15342
H          H       0.96391   0.78632   0.56503   0.12252
H          H       0.04858   0.73476   0.53596   0.13174
H          H       0.98354   0.75208   0.50134   0.09086
H          H       0.95757   0.78260   0.67192   0.10737
H          H       0.82320   0.77289   0.55976   0.12430
H          H       0.82350   0.77270   0.66710   0.10798
H          H       0.91997   0.82572   0.35130   0.35809
H          H       0.70143   0.05355   0.34113   0.13136
H          H       0.63544   0.07001   0.31006   0.10128
H          H       0.80012   0.17423   0.23827   0.12531
H          H       0.91721   0.92546   0.19104   0.15388
H          H       0.74192   0.95822   0.33835   0.09897
H          H       0.65809   0.89273   0.36620   0.13266
H          H       0.73066   0.18716   0.21222   0.11367
H          H       0.90159   0.00382   0.19216   0.15303
H          H       0.82245   0.03616   0.56507   0.12536
H          H       0.68602   0.95134   0.53606   0.13171
H          H       0.76835   0.01632   0.50148   0.09251
H          H       0.82498   0.04271   0.67193   0.10633
H          H       0.94960   0.17671   0.55955   0.12418
H          H       0.94909   0.17672   0.66705   0.10786
H          H       0.90591   0.08014   0.35172   0.35966
H          H       0.35202   0.29845   0.34108   0.13120
H          H       0.43441   0.36440   0.31018   0.10045
H          H       0.37420   0.19987   0.23807   0.12855
H          H       0.00833   0.08270   0.19086   0.15495
H          H       0.21632   0.25809   0.33834   0.09874
H          H       0.23463   0.34189   0.36620   0.13230
H          H       0.45658   0.26932   0.21224   0.11462
H          H       0.10235   0.09837   0.19203   0.15315
H          H       0.21382   0.17765   0.56475   0.12609
H          H       0.26528   0.31389   0.53606   0.13178
H          H       0.24798   0.23158   0.50150   0.09005
H          H       0.21690   0.17456   0.67181   0.10758
H          H       0.22728   0.05042   0.55940   0.12510
H          H       0.22683   0.05053   0.66696   0.10869
H          H       0.17394   0.09373   0.35139   0.35882
H          H       0.01879   0.38687   0.17439   0.13103
H          H       0.10121   0.40328   0.14335   0.10197
H          H       0.04075   0.50754   0.07145   0.12636
H          H       0.67508   0.25877   0.02436   0.15517
H          H       0.88305   0.29137   0.17167   0.09917
H          H       0.90138   0.22593   0.19961   0.13284
H          H       0.12320   0.52052   0.04559   0.10860
H          H       0.76886   0.33695   0.02526   0.15351
H          H       0.88037   0.36955   0.39831   0.12216
H          H       0.93188   0.28464   0.36946   0.13236
H          H       0.91474   0.34973   0.33466   0.09525
H          H       0.88442   0.37603   0.50515   0.10615
H          H       0.89376   0.51015   0.39290   0.12408
H          H       0.89434   0.51010   0.50046   0.10863
H          H       0.84001   0.41320   0.18541   0.36175
H          H       0.61309   0.63182   0.17448   0.13083
H          H       0.59669   0.69778   0.14339   0.10115
H          H       0.49246   0.53324   0.07155   0.12878
H          H       0.74122   0.41623   0.02460   0.15497
H          H       0.70860   0.59157   0.17164   0.09972
H          H       0.77410   0.67532   0.19950   0.13304
H          H       0.47943   0.60268   0.04561   0.10872
H          H       0.66297   0.43183   0.02525   0.15350
H          H       0.63042   0.51069   0.39826   0.12530
H          H       0.71550   0.64733   0.36938   0.13256
H          H       0.65042   0.56511   0.33478   0.09499
H          H       0.62397   0.50829   0.50513   0.10572
H          H       0.48986   0.38354   0.39292   0.12463
H          H       0.48994   0.38418   0.50048   0.10853
H          H       0.58669   0.42677   0.18534   0.36039
H          H       0.36802   0.98124   0.17453   0.13123
H          H       0.30205   0.89885   0.14352   0.10186
H          H       0.46674   0.95922   0.07162   0.12572
H          H       0.58379   0.32496   0.02468   0.15443
H          H       0.40847   0.11702   0.17163   0.09888
H          H       0.32463   0.09864   0.19967   0.13281
H          H       0.39729   0.87681   0.04560   0.11156
H          H       0.56807   0.23108   0.02550   0.15307
H          H       0.48926   0.11960   0.39826   0.12286
H          H       0.35286   0.06803   0.36941   0.13182
H          H       0.43519   0.08537   0.33470   0.09048
H          H       0.49172   0.11561   0.50510   0.10598
H          H       0.61654   0.10622   0.39291   0.12487
H          H       0.61590   0.10569   0.50045   0.10760
H          H       0.57232   0.15913   0.18500   0.35875
H          H       0.61306   0.98121   0.67446   0.13140
H          H       0.59669   0.89885   0.64348   0.10165
H          H       0.49239   0.95926   0.57148   0.12888
H          H       0.74111   0.32478   0.52439   0.15429
H          H       0.70855   0.11694   0.67174   0.09905
H          H       0.77408   0.09869   0.69964   0.13341
H          H       0.47944   0.87684   0.54562   0.11401
H          H       0.66294   0.23097   0.52540   0.15363
H          H       0.63060   0.11964   0.89824   0.12309
H          H       0.71537   0.06799   0.86948   0.13243
H          H       0.65035   0.08532   0.83482   0.09115
H          H       0.62427   0.11584   0.00515   0.10956
H          H       0.48990   0.10613   0.89295   0.12391
H          H       0.49018   0.10599   0.00036   0.10806
H          H       0.58662   0.15938   0.68496   0.35990
H          H       0.36818   0.38692   0.67451   0.13131
H          H       0.30218   0.40330   0.64343   0.10115
H          H       0.46680   0.50753   0.57155   0.12858
H          H       0.58383   0.25890   0.52443   0.15480
H          H       0.40843   0.29134   0.67166   0.09899
H          H       0.32469   0.22596   0.69953   0.13164
H          H       0.39734   0.52050   0.54558   0.10906
H          H       0.56814   0.33711   0.52535   0.15303
H          H       0.48930   0.36957   0.89804   0.12237
H          H       0.35287   0.28463   0.86942   0.13204
H          H       0.43505   0.34971   0.83466   0.09508
H          H       0.49160   0.37605   0.00485   0.10985
H          H       0.61642   0.51004   0.89270   0.12469
H          H       0.61571   0.51005   0.00022   0.10842
H          H       0.57289   0.41344   0.68497   0.35992
H          H       0.01878   0.63181   0.67453   0.13144
H          H       0.10103   0.69779   0.64337   0.10105
H          H       0.04091   0.53322   0.57150   0.12572
H          H       0.67513   0.41622   0.52462   0.15327
H          H       0.88302   0.59151   0.67167   0.09877
H          H       0.90130   0.67530   0.69950   0.13299
H          H       0.12324   0.60271   0.54549   0.10827
H          H       0.76901   0.43190   0.52541   0.15345
H          H       0.88039   0.51083   0.89808   0.12260
H          H       0.93190   0.64730   0.86938   0.13252
H          H       0.91471   0.56501   0.83482   0.09523
H          H       0.88450   0.50844   0.00496   0.10501
H          H       0.89377   0.38360   0.89270   0.12478
H          H       0.89441   0.38424   0.00028   0.10796
H          H       0.84068   0.42714   0.68510   0.35881
H          H       0.68539   0.72028   0.50779   0.13157
H          H       0.76780   0.73667   0.47684   0.09813
H          H       0.70743   0.84100   0.40487   0.12598
H          H       0.34166   0.59222   0.35797   0.15488
H          H       0.54953   0.62496   0.50498   0.09922
H          H       0.56795   0.55947   0.53271   0.13241
H          H       0.78986   0.85389   0.37895   0.10896
H          H       0.43549   0.67045   0.35875   0.15339
H          H       0.54694   0.70288   0.73176   0.12612
H          H       0.59866   0.61799   0.70261   0.13197
H          H       0.58122   0.68297   0.66818   0.09481
H          H       0.55094   0.70940   0.83862   0.10644
H          H       0.56038   0.84352   0.72626   0.12401
H          H       0.56082   0.84343   0.83375   0.10805
H          H       0.50721   0.74678   0.51814   0.36053
H          H       0.27967   0.96512   0.50781   0.13062
H          H       0.26335   0.03112   0.47671   0.09750
H          H       0.15897   0.86657   0.40485   0.12907
H          H       0.40775   0.74952   0.35801   0.15492
H          H       0.37507   0.92470   0.50499   0.09970
H          H       0.44055   0.00851   0.53271   0.13270
H          H       0.14608   0.93608   0.37884   0.10862
H          H       0.32949   0.76513   0.35867   0.15295
H          H       0.29708   0.84418   0.73161   0.12226
H          H       0.38200   0.98068   0.70264   0.13199
H          H       0.31703   0.89835   0.66816   0.09510
H          H       0.29080   0.84165   0.83856   0.10596
H          H       0.15650   0.71705   0.72636   0.12479
H          H       0.15680   0.71745   0.83377   0.10797
H          H       0.25318   0.76044   0.51849   0.36002
H          H       0.03476   0.31457   0.50774   0.13137
H          H       0.96889   0.23219   0.47690   0.10234
H          H       0.13344   0.29254   0.40473   0.12859
H          H       0.25052   0.65832   0.35791   0.15481
H          H       0.07531   0.45043   0.50493   0.09910
H          H       0.99143   0.43206   0.53267   0.13284
H          H       0.06406   0.21008   0.37898   0.10882
H          H       0.23485   0.56445   0.35862   0.15387
H          H       0.15573   0.45302   0.73164   0.12586
H          H       0.01932   0.40138   0.70258   0.13197
H          H       0.10172   0.41876   0.66811   0.09502
H          H       0.15833   0.44929   0.83860   0.10729
H          H       0.28297   0.43955   0.72634   0.12451
H          H       0.28258   0.43946   0.83374   0.10773
H          H       0.23947   0.49275   0.51830   0.35947
H          H       0.27982   0.31456   0.00782   0.13133
H          H       0.26339   0.23215   0.97680   0.10227
H          H       0.15912   0.29264   0.90499   0.12858
H          H       0.40772   0.65837   0.85796   0.15457
H          H       0.37510   0.45049   0.00488   0.09930
H          H       0.44068   0.43217   0.03248   0.13316
H          H       0.14617   0.21021   0.87892   0.11351
H          H       0.32967   0.56448   0.85893   0.15354
H          H       0.29702   0.45304   0.23167   0.12429
H          H       0.38223   0.40137   0.20244   0.13202
H          H       0.31718   0.41877   0.16815   0.09516
H          H       0.29061   0.44901   0.33852   0.10594
H          H       0.15636   0.43960   0.22631   0.12411
H          H       0.15648   0.43915   0.33378   0.10812
H          H       0.25351   0.49242   0.01785   0.35841
H          H       0.03465   0.72014   0.00777   0.13093
H          H       0.96869   0.73669   0.97675   0.10182
H          H       0.13340   0.84085   0.90500   0.12836
H          H       0.25047   0.59215   0.85790   0.15456
H          H       0.07537   0.62497   0.00481   0.09955
H          H       0.99153   0.55941   0.03241   0.13346
H          H       0.06390   0.85384   0.87890   0.11337
H          H       0.23472   0.67029   0.85902   0.15334
H          H       0.15592   0.70300   0.23165   0.12243
H          H       0.01912   0.61780   0.20240   0.13178
H          H       0.10147   0.68282   0.16811   0.09515
H          H       0.15833   0.70943   0.33849   0.10636
H          H       0.28309   0.84352   0.22625   0.12384
H          H       0.28249   0.84346   0.33373   0.10811
H          H       0.23901   0.74665   0.01790   0.35831
H          H       0.68538   0.96523   0.00779   0.13143
H          H       0.76774   0.03113   0.97681   0.10182
H          H       0.70743   0.86656   0.90485   0.12926
H          H       0.34161   0.74959   0.85802   0.15503
H          H       0.54951   0.92460   0.00492   0.09946
H          H       0.56789   0.00849   0.03251   0.13277
H          H       0.78988   0.93594   0.87892   0.10912
H          H       0.43545   0.76510   0.85875   0.15359
H          H       0.54701   0.84416   0.23168   0.12282
H          H       0.59857   0.98078   0.20250   0.13196
H          H       0.58127   0.89838   0.16817   0.09512
H          H       0.55102   0.84165   0.33850   0.10665
H          H       0.56040   0.71690   0.22621   0.12437
H          H       0.56087   0.71746   0.33367   0.10780
H          H       0.50738   0.76048   0.01802   0.36009
C          C       0.35686   0.11216   0.79063   0.01307
C          C       0.21912   0.10496   0.98978   0.60706
C          C       0.30637   0.10073   0.80382   0.60019
C          C       0.22088   0.10662   0.05401  -0.00199
C          C       0.25112   0.91744   0.95305   0.01515
C          C       0.26069   0.87784   0.97000   0.57771
C          C       0.15428   0.00418   0.79340   0.54423
C          C       0.37454   0.08322   0.81240  -0.15083
C          C       0.10550   0.97128   0.77231   0.07294
C          C       0.41983   0.09221   0.79531   0.07304
C          C       0.98957   0.86536   0.79325   0.55408
C          C       0.38672   0.15068   0.75475  -0.14380
C          C       0.03132   0.90965   0.77198   0.07170
C          C       0.03648   0.93531   0.72247  -0.17831
C          C       0.22799   0.95602   0.88136   0.08084
C          C       0.23744   0.91963   0.89665  -0.14512
C          C       0.43201   0.15788   0.74019   0.08522
C          C       0.08414   0.97490   0.72270  -0.17559
C          C       0.21793   0.06836   0.08624  -0.15714
C          C       0.25475   0.95234   0.99194  -0.14638
C          C       0.24541   0.98814   0.97311   0.07421
C          C       0.21922   0.07145   0.14568   0.08248
C          C       0.22501   0.14663   0.08345  -0.14883
C          C       0.22553   0.14676   0.14303   0.08671
C          C       0.88786   0.24451   0.79041   0.01499
C          C       0.89506   0.11438   0.98945   0.60699
C          C       0.89924   0.20522   0.80291   0.59862
C          C       0.89352   0.11440   0.05376  -0.00164
C          C       0.08255   0.33369   0.95307   0.01512
C          C       0.12211   0.38286   0.96987   0.57933
C          C       0.99611   0.15015   0.79417   0.54574
C          C       0.91674   0.29107   0.81235  -0.15166
C          C       0.02869   0.13419   0.77241   0.07239
C          C       0.90773   0.32738   0.79531   0.07394
C          C       0.13469   0.12411   0.79316   0.55603
C          C       0.84926   0.23595   0.75466  -0.14552
C          C       0.09027   0.12154   0.77194   0.07328
C          C       0.06455   0.10109   0.72240  -0.18358
C          C       0.04400   0.27210   0.88138   0.08103
C          C       0.08039   0.31788   0.89671  -0.14433
C          C       0.84204   0.27404   0.74018   0.08503
C          C       0.02500   0.10927   0.72274  -0.17308
C          C       0.93177   0.14961   0.08604  -0.15483
C          C       0.04767   0.30244   0.99202  -0.14566
C          C       0.01186   0.25735   0.97312   0.07507
C          C       0.92888   0.14748   0.14552   0.08304
C          C       0.85353   0.07844   0.08317  -0.14980
C          C       0.85362   0.07852   0.14278   0.08829
C          C       0.75530   0.64309   0.79062   0.01166
C          C       0.88581   0.78094   0.98958   0.60735
C          C       0.79466   0.69350   0.80371   0.59955
C          C       0.88561   0.77913   0.05384  -0.00250
C          C       0.66639   0.74878   0.95309   0.01502
C          C       0.61736   0.73951   0.97009   0.57734
C          C       0.84989   0.84584   0.79355   0.54639
C          C       0.70868   0.62552   0.81237  -0.15028
C          C       0.86571   0.89451   0.77236   0.07348
C          C       0.67242   0.58025   0.79523   0.07369
C          C       0.87586   0.01051   0.79324   0.55408
C          C       0.76394   0.61324   0.75469  -0.14253
C          C       0.87828   0.96866   0.77197   0.07104
C          C       0.89878   0.96344   0.72246  -0.18193
C          C       0.72796   0.77189   0.88130   0.07998
C          C       0.68215   0.76246   0.89669  -0.14470
C          C       0.72587   0.56800   0.74008   0.08709
C          C       0.89069   0.91577   0.72272  -0.17380
C          C       0.85035   0.78212   0.08613  -0.15501
C          C       0.69773   0.74520   0.99195  -0.14587
C          C       0.74284   0.75452   0.97300   0.07832
C          C       0.85216   0.78093   0.14561   0.08415
C          C       0.92150   0.77499   0.08333  -0.14871
C          C       0.92117   0.77459   0.14292   0.08518
C          C       0.88783   0.64310   0.29059   0.01180
C          C       0.89515   0.78097   0.48961   0.60710
C          C       0.89894   0.69353   0.30369   0.59931
C          C       0.89349   0.77917   0.55389  -0.00205
C          C       0.08237   0.74877   0.45307   0.01486
C          C       0.12215   0.73954   0.47024   0.57690
C          C       0.99610   0.84594   0.29351   0.54675
C          C       0.91687   0.62550   0.31238  -0.15069
C          C       0.02898   0.89462   0.27240   0.07448
C          C       0.90786   0.58022   0.29533   0.07316
C          C       0.13459   0.01065   0.29329   0.55705
C          C       0.84934   0.61326   0.25472  -0.14287
C          C       0.09042   0.96878   0.27203   0.06943
C          C       0.06474   0.96357   0.22251  -0.17974
C          C       0.04385   0.77189   0.38128   0.07973
C          C       0.08023   0.76244   0.39667  -0.14466
C          C       0.84216   0.56798   0.24017   0.08494
C          C       0.02525   0.91589   0.22280  -0.17333
C          C       0.93176   0.78215   0.58617  -0.15552
C          C       0.04743   0.74518   0.49191  -0.14594
C          C       0.01164   0.75453   0.47299   0.07830
C          C       0.92878   0.78094   0.64564   0.08399
C          C       0.85348   0.77502   0.58342  -0.14890
C          C       0.85344   0.77460   0.64300   0.08541
C          C       0.75531   0.11213   0.29065   0.01414
C          C       0.88557   0.10495   0.48978   0.60625
C          C       0.79437   0.10070   0.30376   0.59502
C          C       0.88561   0.10656   0.55400  -0.00314
C          C       0.66630   0.91760   0.45311   0.01473
C          C       0.61724   0.87789   0.47012   0.57944
C          C       0.84990   0.00412   0.29344   0.54528
C          C       0.70870   0.08319   0.31242  -0.15160
C          C       0.86578   0.97123   0.27232   0.07443
C          C       0.67244   0.09223   0.29535   0.07355
C          C       0.87585   0.86532   0.29326   0.55449
C          C       0.76398   0.15066   0.25477  -0.14207
C          C       0.87831   0.90958   0.27198   0.07077
C          C       0.89879   0.93523   0.22246  -0.18150
C          C       0.72798   0.95609   0.38140   0.08100
C          C       0.68215   0.91974   0.39674  -0.14452
C          C       0.72593   0.15791   0.24022   0.08477
C          C       0.89075   0.97484   0.22272  -0.17491
C          C       0.85038   0.06830   0.58627  -0.15753
C          C       0.69759   0.95248   0.49201  -0.14639
C          C       0.74274   0.98822   0.47312   0.07664
C          C       0.85221   0.07143   0.64570   0.08292
C          C       0.92152   0.14655   0.58341  -0.14822
C          C       0.92116   0.14671   0.64299   0.08581
C          C       0.35673   0.24458   0.29040   0.01419
C          C       0.21916   0.11422   0.48940   0.60753
C          C       0.30609   0.20532   0.30295   0.59696
C          C       0.22087   0.11435   0.55372   0.00242
C          C       0.25128   0.33368   0.45313   0.01524
C          C       0.26061   0.38273   0.47015   0.57732
C          C       0.15409   0.15011   0.29397   0.54468
C          C       0.37438   0.29115   0.31237  -0.15230
C          C       0.10549   0.13413   0.27232   0.07356
C          C       0.41968   0.32741   0.29538   0.07389
C          C       0.98951   0.12431   0.29307   0.55838
C          C       0.38672   0.23598   0.25467  -0.14464
C          C       0.03128   0.12159   0.27186   0.07170
C          C       0.03651   0.10108   0.22233  -0.18131
C          C       0.22815   0.27204   0.38139   0.08063
C          C       0.23760   0.31785   0.39674  -0.14425
C          C       0.43206   0.27406   0.24019   0.08423
C          C       0.08422   0.10918   0.22266  -0.17303
C          C       0.21783   0.14960   0.58595  -0.15816
C          C       0.25488   0.30236   0.49201  -0.14596
C          C       0.24551   0.25722   0.47314   0.07814
C          C       0.21862   0.14749   0.64544   0.08743
C          C       0.22492   0.07840   0.58314  -0.14962
C          C       0.22493   0.07852   0.64275   0.09107
C          C       0.02357   0.44560   0.12398   0.01457
C          C       0.88561   0.43817   0.32320   0.60834
C          C       0.97288   0.43428   0.13714   0.59921
C          C       0.88756   0.43988   0.38740  -0.00262
C          C       0.91782   0.25074   0.28667   0.01669
C          C       0.92750   0.21134   0.30413   0.57721
C          C       0.82056   0.33704   0.12779   0.54512
C          C       0.04112   0.41658   0.14576  -0.15313
C          C       0.77212   0.30475   0.10592   0.07355
C          C       0.08645   0.42554   0.12865   0.07326
C          C       0.65619   0.19870   0.12666   0.55409
C          C       0.05338   0.48405   0.08810  -0.14170
C          C       0.69794   0.24309   0.10546   0.07284
C          C       0.70322   0.26866   0.05586  -0.18391
C          C       0.89484   0.28928   0.21477   0.08096
C          C       0.90422   0.25287   0.23021  -0.14524
C          C       0.09870   0.49125   0.07355   0.08911
C          C       0.75086   0.30826   0.05617  -0.17190
C          C       0.88460   0.40165   0.41961  -0.15439
C          C       0.92144   0.28575   0.32541  -0.14646
C          C       0.91220   0.32156   0.30640   0.07501
C          C       0.88594   0.40480   0.47901   0.08264
C          C       0.89169   0.47995   0.41670  -0.14855
C          C       0.89228   0.48015   0.47627   0.08620
C          C       0.55442   0.57792   0.12396   0.01436
C          C       0.56182   0.44742   0.32319   0.60784
C          C       0.56593   0.53880   0.13708   0.59830
C          C       0.56013   0.44759   0.38737  -0.00261
C          C       0.74930   0.66704   0.28657   0.01750
C          C       0.78893   0.71615   0.30362   0.57810
C          C       0.66303   0.48354   0.12794   0.54255
C          C       0.58344   0.62446   0.14579  -0.15294
C          C       0.69505   0.46729   0.10592   0.07353
C          C       0.57447   0.66085   0.12859   0.07305
C          C       0.80127   0.45749   0.12655   0.55416
C          C       0.51598   0.56936   0.08811  -0.14232
C          C       0.75681   0.45483   0.10563   0.07302
C          C       0.73123   0.43445   0.05603  -0.18395
C          C       0.71073   0.60551   0.21472   0.07985
C          C       0.74715   0.65128   0.23011  -0.14470
C          C       0.50877   0.60749   0.07348   0.08864
C          C       0.69164   0.44251   0.05623  -0.17004
C          C       0.59834   0.48284   0.41959  -0.15818
C          C       0.71434   0.63572   0.32535  -0.14674
C          C       0.67853   0.59067   0.30638   0.07553
C          C       0.59520   0.48104   0.47900   0.08272
C          C       0.52007   0.41167   0.41670  -0.14827
C          C       0.51988   0.41206   0.47628   0.08626
C          C       0.42194   0.97647   0.12409   0.01275
C          C       0.55251   0.11422   0.32320   0.60701
C          C       0.46138   0.02682   0.13752   0.59782
C          C       0.55242   0.11242   0.38736  -0.00149
C          C       0.33306   0.08212   0.28662   0.01585
C          C       0.28408   0.07296   0.30383   0.57689
C          C       0.51663   0.17918   0.12702   0.54708
C          C       0.37531   0.95888   0.14580  -0.15097
C          C       0.53249   0.22783   0.10600   0.07236
C          C       0.33904   0.91359   0.12872   0.07339
C          C       0.54260   0.34387   0.12664   0.55349
C          C       0.43058   0.94663   0.08812  -0.14155
C          C       0.54507   0.30205   0.10569   0.07225
C          C       0.56548   0.29682   0.05608  -0.18339
C          C       0.39458   0.10519   0.21470   0.08113
C          C       0.34876   0.09573   0.23016  -0.14579
C          C       0.39252   0.90135   0.07357   0.08580
C          C       0.55737   0.24916   0.05625  -0.17333
C          C       0.51715   0.11540   0.41957  -0.15534
C          C       0.36443   0.07848   0.32536  -0.14726
C          C       0.40953   0.08783   0.30637   0.07951
C          C       0.51898   0.11410   0.47898   0.08411
C          C       0.58838   0.10830   0.41667  -0.14990
C          C       0.58801   0.10776   0.47625   0.08673
C          C       0.55451   0.97657   0.62385   0.01481
C          C       0.56181   0.11417   0.82323   0.60751
C          C       0.56596   0.02719   0.63661   0.59755
C          C       0.56022   0.11240   0.88737  -0.00153
C          C       0.74915   0.08206   0.78659   0.01693
C          C       0.78891   0.07276   0.80355   0.57783
C          C       0.66266   0.17918   0.62727   0.54702
C          C       0.58343   0.95888   0.64570  -0.15203
C          C       0.69529   0.22782   0.60593   0.07439
C          C       0.57443   0.91358   0.62868   0.07339
C          C       0.80106   0.34383   0.62672   0.55797
C          C       0.51597   0.94667   0.58801  -0.14428
C          C       0.75684   0.30197   0.60552   0.07071
C          C       0.73126   0.29666   0.55588  -0.18070
C          C       0.71064   0.10511   0.71478   0.08102
C          C       0.74704   0.09572   0.73017  -0.14554
C          C       0.50874   0.90136   0.57355   0.08515
C          C       0.69171   0.24901   0.55618  -0.17320
C          C       0.59852   0.11544   0.91954  -0.15634
C          C       0.71422   0.07843   0.82543  -0.14661
C          C       0.67844   0.08777   0.80650   0.07729
C          C       0.59547   0.11424   0.97896   0.08377
C          C       0.52016   0.10827   0.91669  -0.14858
C          C       0.52011   0.10790   0.97623   0.08577
C          C       0.42208   0.44547   0.62396   0.01486
C          C       0.55252   0.43809   0.82307   0.60818
C          C       0.46130   0.43412   0.63682   0.59576
C          C       0.55238   0.43990   0.88730  -0.00183
C          C       0.33303   0.25071   0.78665   0.01626
C          C       0.28399   0.21135   0.80424   0.57460
C          C       0.51660   0.33738   0.62723   0.54597
C          C       0.37547   0.41655   0.64576  -0.15200
C          C       0.53261   0.30477   0.60587   0.07245
C          C       0.33916   0.42553   0.62866   0.07312
C          C       0.54276   0.19883   0.62662   0.55356
C          C       0.43067   0.48398   0.58807  -0.14434
C          C       0.54521   0.24316   0.60547   0.07284
C          C       0.56553   0.26877   0.55588  -0.18338
C          C       0.39455   0.28923   0.71474   0.08049
C          C       0.34874   0.25284   0.73020  -0.14567
C          C       0.39259   0.49121   0.57352   0.08705
C          C       0.55743   0.30834   0.55614  -0.17285
C          C       0.51702   0.40162   0.91921  -0.15707
C          C       0.36442   0.28572   0.82539  -0.14705
C          C       0.40945   0.32152   0.80638   0.07535
C          C       0.51891   0.40488   0.97888   0.08079
C          C       0.58828   0.47994   0.91633  -0.15048
C          C       0.58782   0.48008   0.97620   0.08826
C          C       0.02347   0.57791   0.62388   0.01554
C          C       0.88561   0.44741   0.82300   0.60864
C          C       0.97290   0.53867   0.63667   0.59545
C          C       0.88758   0.44765   0.88729  -0.00182
C          C       0.91781   0.66701   0.78655   0.01695
C          C       0.92736   0.71619   0.80359   0.57811
C          C       0.82089   0.48340   0.62720   0.54559
C          C       0.04108   0.62450   0.64571  -0.15239
C          C       0.77226   0.46744   0.60592   0.07487
C          C       0.08635   0.66083   0.62857   0.07322
C          C       0.65612   0.45721   0.62684   0.55728
C          C       0.05342   0.56936   0.58798  -0.14211
C          C       0.69805   0.45484   0.60564   0.07091
C          C       0.70332   0.43453   0.55602  -0.18018
C          C       0.89480   0.60544   0.71474   0.08114
C          C       0.90420   0.65125   0.73011  -0.14554
C          C       0.09869   0.60748   0.57342   0.08850
C          C       0.75099   0.44264   0.55621  -0.17226
C          C       0.88465   0.48299   0.91930  -0.15663
C          C       0.92146   0.63569   0.82535  -0.14662
C          C       0.91217   0.59060   0.80644   0.07448
C          C       0.88609   0.48108   0.97892   0.08427
C          C       0.89172   0.41174   0.91638  -0.15049
C          C       0.89238   0.41225   0.97620   0.08794
C          C       0.69012   0.77889   0.45719   0.01354
C          C       0.55257   0.77160   0.65656   0.60600
C          C       0.63947   0.76745   0.46964   0.59797
C          C       0.55421   0.77333   0.72073  -0.00095
C          C       0.58462   0.58428   0.61965   0.01689
C          C       0.59394   0.54450   0.63650   0.57627
C          C       0.48748   0.67070   0.46069   0.54613
C          C       0.70775   0.74994   0.47912  -0.15096
C          C       0.43888   0.63803   0.43921   0.07366
C          C       0.75306   0.75893   0.46211   0.07640
C          C       0.32277   0.53226   0.46009   0.55818
C          C       0.72005   0.81746   0.42142  -0.14082
C          C       0.36466   0.57651   0.43895   0.07018
C          C       0.36989   0.60206   0.38933  -0.18139
C          C       0.56141   0.62284   0.54801   0.08128
C          C       0.57090   0.58646   0.56325  -0.14601
C          C       0.76534   0.82465   0.40694   0.08802
C          C       0.41757   0.64159   0.38949  -0.17245
C          C       0.55119   0.73503   0.75296  -0.15696
C          C       0.58822   0.61914   0.65857  -0.14687
C          C       0.57881   0.65491   0.63980   0.07530
C          C       0.55249   0.73815   0.81238   0.08217
C          C       0.55832   0.81335   0.75008  -0.14889
C          C       0.55881   0.81348   0.80965   0.08661
C          C       0.22108   0.91126   0.45716   0.01498
C          C       0.22849   0.78096   0.65662   0.60669
C          C       0.23244   0.87197   0.46968   0.59581
C          C       0.22671   0.78101   0.72075  -0.00032
C          C       0.41573   0.00037   0.61964   0.01658
C          C       0.45544   0.04940   0.63658   0.57764
C          C       0.32919   0.81682   0.46066   0.54687
C          C       0.25003   0.95782   0.47907  -0.15084
C          C       0.36188   0.80092   0.43914   0.07072
C          C       0.24108   0.99414   0.46197   0.07536
C          C       0.46775   0.79060   0.46001   0.55530
C          C       0.18253   0.90270   0.42138  -0.14470
C          C       0.42345   0.78826   0.43890   0.07059
C          C       0.39788   0.76792   0.38930  -0.18416
C          C       0.37717   0.93866   0.54801   0.08070
C          C       0.41355   0.98447   0.56327  -0.14469
C          C       0.17535   0.94079   0.40680   0.08907
C          C       0.35833   0.77607   0.38944  -0.17067
C          C       0.26501   0.81628   0.75291  -0.15555
C          C       0.38087   0.96911   0.65860  -0.14722
C          C       0.34509   0.92398   0.63978   0.07565
C          C       0.26204   0.81448   0.81235   0.08355
C          C       0.18671   0.74512   0.75015  -0.14893
C          C       0.18672   0.74548   0.80970   0.08682
C          C       0.08871   0.30987   0.45715   0.01478
C          C       0.21899   0.44752   0.65656   0.60644
C          C       0.12795   0.36049   0.46957   0.59507
C          C       0.21896   0.44580   0.72076  -0.00114
C          C      -0.00037   0.41537   0.61960   0.01663
C          C       0.95055   0.40598   0.63652   0.57642
C          C       0.18318   0.51255   0.46073   0.54581
C          C       0.04215   0.29224   0.47910  -0.15143
C          C       0.19910   0.56110   0.43912   0.07323
C          C       0.00588   0.24691   0.46215   0.07217
C          C       0.20946   0.67726   0.46007   0.55707
C          C       0.09733   0.27992   0.42137  -0.14403
C          C       0.21180   0.63534   0.43887   0.07098
C          C       0.23210   0.63007   0.38924  -0.18206
C          C       0.06135   0.43858   0.54797   0.08086
C          C       0.01549   0.42910   0.56321  -0.14532
C          C       0.05929   0.23459   0.40697   0.08742
C          C       0.22394   0.58238   0.38939  -0.17262
C          C       0.18367   0.44884   0.75290  -0.15787
C          C       0.03091   0.41180   0.65854  -0.14637
C          C       0.07608   0.42120   0.63973   0.07431
C          C       0.18548   0.44766   0.81234   0.08370
C          C       0.25487   0.44168   0.75012  -0.14883
C          C       0.25452   0.44133   0.80968   0.08567
C          C       0.22112   0.30980   0.95738   0.01242
C          C       0.22836   0.44731   0.15646   0.60515
C          C       0.23220   0.36027   0.97038   0.59868
C          C       0.22660   0.44583   0.22068  -0.00010
C          C       0.41589   0.41543   0.11944   0.01552
C          C       0.45554   0.40605   0.13640   0.57831
C          C       0.32938   0.51258   0.96065   0.54613
C          C       0.25015   0.29221   0.97912  -0.15083
C          C       0.36225   0.56118   0.93928   0.07414
C          C       0.24118   0.24694   0.96201   0.07220
C          C       0.46779   0.67752   0.95998   0.55759
C          C       0.18264   0.27996   0.92146  -0.14340
C          C       0.42363   0.63547   0.93893   0.06984
C          C       0.39799   0.63015   0.88933  -0.18110
C          C       0.37730   0.43865   0.04789   0.07988
C          C       0.41367   0.42919   0.06311  -0.14290
C          C       0.17548   0.23471   0.90685   0.08490
C          C       0.35859   0.58242   0.88958  -0.17353
C          C       0.26490   0.44884   0.25292  -0.15627
C          C       0.38101   0.41182   0.15845  -0.14719
C          C       0.34524   0.42122   0.13969   0.07510
C          C       0.26183   0.44752   0.31234   0.08243
C          C       0.18659   0.44172   0.25007  -0.14911
C          C       0.18647   0.44120   0.30966   0.08672
C          C       0.08856   0.77886   0.95737   0.01404
C          C       0.21909   0.77153   0.15647   0.60715
C          C       0.12794   0.76778   0.97040   0.59631
C          C       0.21914   0.77335   0.22066  -0.00103
C          C      -0.00049   0.58414   0.11941   0.01522
C          C       0.95050   0.54445   0.13637   0.57896
C          C       0.18322   0.67064   0.96080   0.54658
C          C       0.04195   0.74982   0.97911  -0.15104
C          C       0.19900   0.63779   0.93942   0.07186
C          C       0.00569   0.75887   0.96203   0.07300
C          C       0.20925   0.53195   0.95990   0.55431
C          C       0.09722   0.81736   0.92147  -0.14405
C          C       0.21178   0.57629   0.93893   0.07148
C          C       0.23204   0.60190   0.88933  -0.18261
C          C       0.06134   0.62276   0.04785   0.07977
C          C       0.01551   0.58639   0.06305  -0.14333
C          C       0.05915   0.82458   0.90688   0.08454
C          C       0.22383   0.64139   0.88968  -0.17351
C          C       0.18384   0.73510   0.25289  -0.15432
C          C       0.03076   0.61901   0.15839  -0.14667
C          C       0.07591   0.65477   0.13964   0.07430
C          C       0.18558   0.73818   0.31230   0.08190
C          C       0.25500   0.81334   0.25005  -0.14875
C          C       0.25458   0.81349   0.30962   0.08634
C          C       0.69012   0.91132   0.95717   0.01434
C          C       0.55239   0.78095   0.15648   0.60676
C          C       0.63950   0.87205   0.96965   0.59646
C          C       0.55417   0.78090   0.22067  -0.00076
C          C       0.58447   0.00034   0.11950   0.01582
C          C       0.59403   0.04951   0.13637   0.57951
C          C       0.48749   0.81682   0.96064   0.54558
C          C       0.70772   0.95786   0.97912  -0.15116
C          C       0.43886   0.80085   0.93924   0.07315
C          C       0.75302   0.99414   0.96208   0.07218
C          C       0.32284   0.79080   0.96007   0.55863
C          C       0.72009   0.90269   0.92143  -0.14438
C          C       0.36466   0.78824   0.93899   0.06912
C          C       0.36986   0.76793   0.88937  -0.18082
C          C       0.56133   0.93860   0.04794   0.08122
C          C       0.57077   0.98442   0.06313  -0.14457
C          C       0.76538   0.94074   0.90692   0.08796
C          C       0.41754   0.77602   0.88953  -0.17212
C          C       0.55120   0.81621   0.25286  -0.15536
C          C       0.58810   0.96911   0.15848  -0.14684
C          C       0.57876   0.92396   0.13976   0.07591
C          C       0.55251   0.81441   0.31229   0.08297
C          C       0.55829   0.74500   0.25000  -0.14902
C          C       0.55883   0.74539   0.30957   0.08642
N          N       0.22313   0.11004   0.17426  -0.23178
N          N       0.23208   0.99028   0.91866  -0.24877
N          N       0.44810   0.12836   0.75889  -0.26042
N          N       0.22199   0.11252   0.67393  -0.23224
N          N       0.20498   0.21861   0.92564  -0.26001
N          N       0.89055   0.11250   0.17400  -0.23231
N          N       0.00970   0.24194   0.91866  -0.24888
N          N       0.87162   0.31966   0.75889  -0.26106
N          N       0.88689   0.11002   0.67429  -0.23015
N          N       0.78136   0.98630   0.92570  -0.26122
N          N       0.88691   0.77714   0.17420  -0.23173
N          N       0.75821   0.76783   0.91852  -0.24921
N          N       0.68026   0.55198   0.75882  -0.25998
N          N       0.89026   0.77717   0.67424  -0.23129
N          N       0.01359   0.79509   0.92572  -0.26137
N          N       0.00956   0.76786   0.41851  -0.24852
N          N       0.87168   0.55192   0.25900  -0.25947
N          N       0.78134   0.79508   0.42576  -0.25869
N          N       0.75819   0.99035   0.41867  -0.24800
N          N       0.68033   0.12842   0.25898  -0.26047
N          N       0.01373   0.21854   0.42585  -0.26125
N          N       0.23225   0.24184   0.41866  -0.24817
N          N       0.44799   0.31962   0.25903  -0.25987
N          N       0.20497   0.98638   0.42551  -0.26208
N          N       0.88983   0.44341   0.50758  -0.23116
N          N       0.89898   0.32367   0.25188  -0.25107
N          N       0.11479   0.46176   0.09235  -0.26075
N          N       0.88992   0.44648   0.00726  -0.22836
N          N       0.55660   0.44636   0.50760  -0.23126
N          N       0.67636   0.57529   0.25193  -0.25145
N          N       0.53835   0.65306   0.09217  -0.26095
N          N       0.55353   0.44340   0.00714  -0.22864
N          N       0.55369   0.11019   0.50756  -0.23045
N          N       0.42489   0.10114   0.25188  -0.25026
N          N       0.34694   0.88525   0.09243  -0.26004
N          N       0.55694   0.11047   0.00747  -0.23215
N          N       0.67632   0.10102   0.75201  -0.24981
N          N       0.53825   0.88526   0.59230  -0.26130
N          N       0.42480   0.32361   0.75189  -0.24903
N          N       0.34697   0.46169   0.59225  -0.26186
N          N       0.89894   0.57521   0.75195  -0.24942
N          N       0.11470   0.65306   0.59214  -0.26225
N          N       0.55641   0.77676   0.84091  -0.23251
N          N       0.56549   0.65704   0.58536  -0.25000
N          N       0.55638   0.77967   0.34080  -0.23064
N          N       0.22351   0.77972   0.84090  -0.23266
N          N       0.34296   0.90853   0.58535  -0.24885
N          N       0.22028   0.77675   0.34087  -0.23117
N          N       0.22024   0.44387   0.84090  -0.23201
N          N       0.09154   0.43450   0.58526  -0.24869
N          N       0.22321   0.44362   0.34089  -0.23233
N          N       0.34309   0.43457   0.08529  -0.24893
N          N       0.09147   0.65700   0.08525  -0.24731
N          N       0.56544   0.90848   0.08532  -0.24939
O          O       0.20928   0.10099   0.85239  -0.92687
O          O       0.28748   0.11676   0.76865  -0.56239
O          O       0.26300   0.85204   0.93015  -0.58488
O          O       0.95324   0.84690   0.76000  -0.56004
O          O       0.18326   0.03407   0.75689  -0.57808
O          O       0.21906   0.06896   0.96619  -0.56343
O          O       0.26566   0.87305   0.02349  -0.55403
O          O       0.21750   0.13985   0.96580  -0.56410
O          O       0.99367   0.84993   0.84269  -0.57387
O          O       0.16314   0.00096   0.84653  -0.55828
O          O       0.07337   0.93148   0.80325  -0.09345
O          O       0.28713   0.07476   0.84828  -0.57601
O          O       0.25522   0.18552   0.76475  -0.58694
O          O       0.15324   0.10656   0.75975  -0.56097
O          O       0.27483   0.20647   0.85779  -0.55247
O          O       0.14993   0.14334   0.84284  -0.57555
O          O       0.89913   0.10767   0.85175  -0.92316
O          O       0.88358   0.17098   0.76732  -0.55234
O          O       0.14790   0.41097   0.92998  -0.58575
O          O       0.96579   0.14955   0.75831  -0.58771
O          O       0.93135   0.15007   0.96580  -0.56374
O          O       0.12687   0.39251   0.02338  -0.55224
O          O       0.85982   0.07823   0.96556  -0.56324
O          O      -0.00012   0.16239   0.84725  -0.55620
O          O       0.06848   0.14173   0.80328  -0.09317
O          O       0.92498   0.21156   0.84782  -0.57998
O          O       0.81464   0.07060   0.76367  -0.58293
O          O       0.89430   0.04692   0.76002  -0.56065
O          O       0.79379   0.06826   0.85731  -0.55488
O          O       0.85627   0.00651   0.84253  -0.57325
O          O       0.89187   0.79087   0.85167  -0.92359
O          O       0.82942   0.71219   0.76847  -0.55766
O          O       0.58915   0.73701   0.93026  -0.58478
O          O       0.85049   0.81675   0.75689  -0.58516
O          O       0.84984   0.78104   0.96592  -0.56372
O          O       0.60803   0.73535   0.02371  -0.55420
O          O       0.92223   0.78243   0.96559  -0.56345
O          O       0.83818   0.83706   0.84674  -0.55899
O          O       0.85807   0.92666   0.80326  -0.09331
O          O       0.78819   0.71267   0.84852  -0.57624
O          O       0.92974   0.74426   0.76381  -0.58321
O          O       0.93214   0.72566   0.85728  -0.55322
O          O       0.89903   0.79083   0.35173  -0.92269
O          O       0.88282   0.71220   0.26845  -0.55713
O          O       0.14798   0.73715   0.43033  -0.58597
O          O       0.15269   0.04699   0.26000  -0.56322
O          O       0.96642   0.81686   0.25684  -0.58468
O          O       0.93120   0.78108   0.46601  -0.56302
O          O       0.12733   0.73535   0.52376  -0.55309
O          O       0.86020   0.78250   0.46562  -0.56409
O          O       0.15011   0.00667   0.34267  -0.57058
O          O      -0.00103   0.83713   0.34671  -0.55890
O          O       0.06870   0.92678   0.30334  -0.09237
O          O       0.92460   0.71275   0.34846  -0.57630
O          O       0.81459   0.74426   0.26391  -0.58237
O          O       0.89369   0.84680   0.26004  -0.56021
O          O       0.79365   0.72563   0.35742  -0.55449
O          O       0.85633   0.84991   0.34269  -0.57305
O          O       0.89191   0.10103   0.35258  -0.92456
O          O       0.82923   0.11670   0.26865  -0.55621
O          O       0.58919   0.85207   0.43013  -0.58628
O          O       0.85084   0.03407   0.25700  -0.58105
O          O       0.84990   0.06860   0.46626  -0.56316
O          O       0.60768   0.87281   0.52362  -0.55279
O          O       0.92155   0.14027   0.46567  -0.56327
O          O       0.83777   0.00077   0.34657  -0.55907
O          O       0.85812   0.93143   0.30327  -0.09391
O          O       0.78763   0.07467   0.34826  -0.57871
O          O       0.93013   0.18535   0.26464  -0.58884
O          O       0.95331   0.10650   0.25973  -0.55911
O          O       0.93218   0.20671   0.35767  -0.55147
O          O       0.99362   0.14376   0.34255  -0.57252
O          O       0.20886   0.10789   0.35184  -0.92319
O          O       0.28747   0.17095   0.26747  -0.55296
O          O       0.26283   0.41079   0.43016  -0.58541
O          O       0.18369   0.14951   0.25803  -0.58118
O          O       0.21875   0.15000   0.46578  -0.56222
O          O       0.26506   0.39226   0.52364  -0.55298
O          O       0.21790   0.07787   0.46559  -0.56140
O          O       0.16261   0.16239   0.34709  -0.55565
O          O       0.07329   0.14177   0.30316  -0.09265
O          O       0.28680   0.21182   0.34781  -0.58275
O          O       0.25592   0.07045   0.26404  -0.58358
O          O       0.27491   0.06888   0.35758  -0.55465
O          O       0.87482   0.43386   0.18568  -0.92643
O          O       0.95394   0.44930   0.10040  -0.56081
O          O       0.61977   0.18021   0.09375  -0.55720
O          O       0.85030   0.36769   0.09127  -0.59528
O          O       0.88542   0.40200   0.29972  -0.56572
O          O       0.88409   0.47306   0.29950  -0.56261
O          O       0.66063   0.18327   0.17598  -0.57458
O          O       0.82948   0.33341   0.18028  -0.55112
O          O       0.73992   0.26503   0.13696  -0.09408
O          O       0.95416   0.40981   0.18214  -0.57000
O          O       0.92268   0.51838   0.09630  -0.58630
O          O       0.81935   0.43926   0.09378  -0.55367
O          O       0.94047   0.53944   0.18976  -0.55391
O          O       0.81685   0.47750   0.17604  -0.57895
O          O       0.56619   0.44116   0.18575  -0.92505
O          O       0.55076   0.50460   0.10010  -0.56434
O          O       0.63202   0.48260   0.09102  -0.60093
O          O       0.59801   0.48336   0.29964  -0.56685
O          O       0.52682   0.41106   0.29947  -0.56191
O          O       0.66654   0.49610   0.18007  -0.54593
O          O       0.73481   0.47488   0.13700  -0.09462
O          O       0.59039   0.54441   0.18196  -0.56805
O          O       0.48163   0.40429   0.09633  -0.58690
O          O       0.56083   0.38014   0.09395  -0.55314
O          O       0.46050   0.40102   0.18984  -0.55342
O          O       0.52258   0.33945   0.17618  -0.57934
O          O       0.55863   0.12429   0.18558  -0.92416
O          O       0.49609   0.04560   0.10235  -0.55576
O          O       0.51751   0.15029   0.09029  -0.58527
O          O       0.51636   0.11411   0.29974  -0.56372
O          O       0.58902   0.11590   0.29933  -0.56304
O          O       0.50458   0.17005   0.18018  -0.55967
O          O       0.52498   0.26002   0.13705  -0.09287
O          O       0.45500   0.04571   0.18267  -0.57589
O          O       0.59619   0.07754   0.09646  -0.58618
O          O       0.59911   0.05936   0.18979  -0.55280
O          O       0.56573   0.12452   0.68572  -0.92387
O          O       0.55068   0.04607   0.60061  -0.55421
O          O       0.81915   0.38028   0.59365  -0.56296
O          O       0.63255   0.14988   0.59104  -0.58524
O          O       0.59812   0.11465   0.79967  -0.56470
O          O       0.52662   0.11521   0.79943  -0.56330
O          O       0.81666   0.33962   0.67594  -0.57251
O          O       0.66613   0.17032   0.68025  -0.55794
O          O       0.73497   0.26001   0.63698  -0.09231
O          O       0.59132   0.04615   0.68172  -0.57677
O          O       0.48134   0.07736   0.59657  -0.58551
O          O       0.56125   0.18079   0.59366  -0.55960
O          O       0.46047   0.05902   0.69007  -0.55290
O          O       0.52274   0.18311   0.67567  -0.57440
O          O       0.55883   0.43429   0.68573  -0.92497
O          O       0.49543   0.44931   0.60090  -0.55384
O          O       0.51738   0.36756   0.59113  -0.58183
O          O       0.51661   0.40205   0.79968  -0.56298
O          O       0.58905   0.47306   0.79939  -0.56398
O          O       0.50416   0.33381   0.68024  -0.55784
O          O       0.52510   0.26505   0.63692  -0.09345
O          O       0.45489   0.40882   0.68210  -0.58034
O          O       0.59602   0.51870   0.59664  -0.58220
O          O       0.61968   0.43886   0.59380  -0.56178
O          O       0.59852   0.53943   0.69019  -0.55623
O          O       0.66032   0.47702   0.67607  -0.57085
O          O       0.87559   0.44121   0.68571  -0.92365
O          O       0.95402   0.50454   0.60070  -0.55375
O          O       0.85024   0.48263   0.59103  -0.58087
O          O       0.88542   0.48332   0.79959  -0.56402
O          O       0.88410   0.41097   0.79941  -0.56220
O          O       0.82980   0.49578   0.68025  -0.55786
O          O       0.74008   0.47497   0.63700  -0.09266
O          O       0.95394   0.54504   0.68190  -0.58083
O          O       0.92262   0.40394   0.59660  -0.58340
O          O       0.94081   0.40123   0.69009  -0.55492
O          O       0.54208   0.76758   0.51859  -0.92462
O          O       0.62082   0.78317   0.43393  -0.55433
O          O       0.28634   0.51434   0.42696  -0.56292
O          O       0.51693   0.70080   0.42460  -0.58474
O          O       0.55212   0.73520   0.63346  -0.56380
O          O       0.55154   0.80661   0.63209  -0.56524
O          O       0.32697   0.51658   0.50923  -0.57111
O          O       0.49618   0.66725   0.51385  -0.55758
O          O       0.40667   0.59837   0.47033  -0.09150
O          O       0.62002   0.74167   0.51431  -0.57715
O          O       0.48568   0.77203   0.42697  -0.56065
O          O       0.48345   0.81050   0.50913  -0.57491
O          O       0.23244   0.77457   0.51906  -0.92508
O          O       0.21675   0.83764   0.43398  -0.55377
O          O       0.29905   0.81620   0.42464  -0.58197
O          O       0.26472   0.81690   0.63339  -0.56340
O          O       0.19353   0.74465   0.63235  -0.56486
O          O       0.33274   0.82900   0.51378  -0.55710
O          O       0.40158   0.80840   0.47027  -0.09170
O          O       0.25820   0.87833   0.51439  -0.58091
O          O       0.22799   0.71374   0.42703  -0.56308
O          O       0.18960   0.67309   0.50922  -0.57064
O          O       0.22539   0.45785   0.51870  -0.92462
O          O       0.16230   0.37914   0.43395  -0.55353
O          O       0.18377   0.48300   0.42472  -0.58164
O          O       0.18306   0.44788   0.63336  -0.56337
O          O       0.25522   0.44873   0.63227  -0.56496
O          O       0.17103   0.50390   0.51385  -0.55591
O          O       0.19166   0.59333   0.47023  -0.09169
O          O       0.12156   0.37990   0.51434  -0.58134
O          O       0.23251   0.45759   0.01843  -0.92358
O          O       0.21573   0.37865   0.93524  -0.55560
O          O       0.48568   0.71377   0.92664  -0.56235
O          O       0.29962   0.48350   0.92398  -0.58442
O          O       0.26493   0.44798   0.13359  -0.56320
O          O       0.19316   0.44784   0.13171  -0.56519
O          O       0.48342   0.67358   0.00933  -0.57125
O          O       0.33249   0.50392   0.01393  -0.55730
O          O       0.40187   0.59349   0.97040  -0.09231
O          O       0.25823   0.37961   0.01481  -0.57559
O          O       0.22726   0.51360   0.92679  -0.55828
O          O       0.18942   0.51639   0.00919  -0.57373
O          O       0.22507   0.76759   0.01852  -0.92256
O          O       0.16283   0.78425   0.93536  -0.55577
O          O       0.18381   0.70041   0.92413  -0.58422
O          O       0.18294   0.73523   0.13352  -0.56366
O          O       0.25523   0.80633   0.13190  -0.56490
O          O       0.17154   0.66767   0.01400  -0.55588
O          O       0.19166   0.59812   0.97050  -0.09268
O          O       0.12121   0.74170   0.01483  -0.57938
O          O       0.28640   0.77268   0.92714  -0.56101
O          O       0.32721   0.81071   0.00927  -0.57159
O          O       0.54230   0.77475   0.01830  -0.92427
O          O       0.62090   0.83764   0.93405  -0.55429
O          O       0.51697   0.81622   0.92450  -0.58134
O          O       0.55206   0.81685   0.13334  -0.56282
O          O       0.55121   0.74472   0.13209  -0.56601
O          O       0.49619   0.82901   0.01377  -0.55602
O          O       0.40665   0.80831   0.97041  -0.09136
O          O       0.62011   0.87851   0.01430  -0.58064

