data_crystal

_cell_length_a 16.54280
_cell_length_b 16.54280
_cell_length_c 24.39880
_cell_angle_alpha 90.00000
_cell_angle_beta  90.00000
_cell_angle_gamma 120.00000

_symmetry_space_group_name_	'P 1'
_symmetry_space_group_name_H-M	'P 1'

loop_
_symmetry_equiv_pos_as_xyz
  x,y,z

loop_
_atom_site_label
_atom_site_type_symbol
_atom_site_fract_x
_atom_site_fract_y
_atom_site_fract_z
_atom_site_charge
La	La	0.08098 0.08098 -0.00000 1.55700
La	La	-0.00000 0.91902 0.33333 1.61400
La	La	0.91902 0.00000 0.66667 1.61400
La	La	0.91902 0.91902 0.50000 1.70400
La	La	0.00000 0.08098 0.83333 1.56300
La	La	0.08098 0.00000 0.16667 1.55800
H 	H 	0.98310 0.32210 0.00190 -0.01400
H 	H 	0.88730 0.38740 0.99230 0.09600
H 	H 	0.71970 0.17520 0.89250 0.06700
H 	H 	0.81090 0.10630 0.90650 0.01700
H 	H 	0.84980 0.47110 0.93880 0.07800
H 	H 	0.87480 0.60660 0.98340 0.08200
H 	H 	0.95850 0.76830 0.98200 0.05200
H 	H 	0.33900 0.01690 0.33523 0.01600
H 	H 	0.50010 0.11270 0.32563 0.05300
H 	H 	0.45550 0.28030 0.22583 0.05500
H 	H 	0.29540 0.18910 0.23983 0.04300
H 	H 	0.62130 0.15020 0.27213 0.06700
H 	H 	0.73180 0.12520 0.31673 0.06500
H 	H 	0.80980 0.04150 0.31533 0.01400
H 	H 	0.67790 0.66100 0.66857 0.03100
H 	H 	0.61260 0.49990 0.65897 0.06000
H 	H 	0.82480 0.54450 0.55917 0.06800
H 	H 	0.89370 0.70460 0.57317 0.04900
H 	H 	0.52890 0.37870 0.60547 0.07400
H 	H 	0.39340 0.26820 0.65007 0.06500
H 	H 	0.23170 0.19020 0.64867 0.03100
H 	H 	0.01690 0.67790 0.50190 0.01800
H 	H 	0.11270 0.61260 0.49230 0.05200
H 	H 	0.28030 0.82480 0.39250 0.06400
H 	H 	0.18910 0.89370 0.40650 0.05400
H 	H 	0.15020 0.52890 0.43880 0.06800
H 	H 	0.12520 0.39340 0.48340 0.06100
H 	H 	0.04150 0.23170 0.48200 0.01500
H 	H 	0.66100 0.98310 0.83523 0.04500
H 	H 	0.49990 0.88730 0.82563 0.07200
H 	H 	0.54450 0.71970 0.72583 0.06400
H 	H 	0.70460 0.81090 0.73983 0.03600
H 	H 	0.37870 0.84980 0.77213 0.08000
H 	H 	0.26820 0.87480 0.81673 0.07500
H 	H 	0.19020 0.95850 0.81533 0.04600
H 	H 	0.32210 0.33900 0.16857 0.02600
H 	H 	0.38740 0.50010 0.15897 0.06100
H 	H 	0.17520 0.45550 0.05917 0.04800
H 	H 	0.10630 0.29540 0.07317 0.02300
H 	H 	0.47110 0.62130 0.10547 0.07100
H 	H 	0.60660 0.73180 0.15007 0.07200
H 	H 	0.76830 0.80980 0.14867 0.02700
H 	H 	0.66100 0.67790 0.33143 0.03100
H 	H 	0.49990 0.61260 0.34103 0.06000
H 	H 	0.54450 0.82480 0.44083 0.06800
H 	H 	0.70460 0.89370 0.42683 0.04900
H 	H 	0.37870 0.52890 0.39453 0.07400
H 	H 	0.26820 0.39340 0.34993 0.06500
H 	H 	0.19020 0.23170 0.35133 0.03000
H 	H 	0.32210 0.98310 0.99810 0.09900
H 	H 	0.38740 0.88730 0.00770 0.04300
H 	H 	0.17520 0.71970 0.10750 0.04500
H 	H 	0.10630 0.81090 0.09350 0.03400
H 	H 	0.47110 0.84980 0.06120 0.07900
H 	H 	0.60660 0.87480 0.01660 0.07100
H 	H 	0.76830 0.95850 0.01800 0.03600
H 	H 	0.01690 0.33900 0.66477 0.01600
H 	H 	0.11270 0.50010 0.67437 0.05300
H 	H 	0.28030 0.45550 0.77417 0.05800
H 	H 	0.18910 0.29540 0.76017 0.04300
H 	H 	0.15020 0.62130 0.72787 0.06800
H 	H 	0.12520 0.73180 0.68327 0.06500
H 	H 	0.04150 0.80980 0.68467 0.01400
H 	H 	0.33900 0.32210 0.83143 0.02800
H 	H 	0.50010 0.38740 0.84103 0.06300
H 	H 	0.45550 0.17520 0.94083 0.05700
H 	H 	0.29540 0.10630 0.92683 0.03500
H 	H 	0.62130 0.47110 0.89453 0.07300
H 	H 	0.73180 0.60660 0.84993 0.07300
H 	H 	0.80980 0.76830 0.85133 0.03000
H 	H 	0.67790 0.01690 0.49810 0.01800
H 	H 	0.61260 0.11270 0.50770 0.05200
H 	H 	0.82480 0.28030 0.60750 0.06400
H 	H 	0.89370 0.18910 0.59350 0.05400
H 	H 	0.52890 0.15020 0.56120 0.06800
H 	H 	0.39340 0.12520 0.51660 0.06100
H 	H 	0.23170 0.04150 0.51800 0.01500
H 	H 	0.98310 0.66100 0.16477 0.04200
H 	H 	0.88730 0.49990 0.17437 0.06700
H 	H 	0.71970 0.54450 0.27417 0.06400
H 	H 	0.81090 0.70460 0.26017 0.03600
H 	H 	0.84980 0.37870 0.22787 0.07900
H 	H 	0.87480 0.26820 0.18327 0.07000
H 	H 	0.95850 0.19020 0.18467 0.04500
H 	H 	0.61380 0.22760 0.91667 0.06300
H 	H 	0.61380 0.38620 0.25000 0.07100
H 	H 	0.77240 0.38620 0.58333 0.08000
H 	H 	0.38620 0.77240 0.41667 0.08000
H 	H 	0.38620 0.61380 0.75000 0.07200
H 	H 	0.22760 0.61380 0.08333 0.06400
C 	C 	0.97400 0.17340 0.96090 0.42700
C 	C 	0.90730 0.20930 0.95520 -0.17900
C 	C 	0.92980 0.29230 0.98030 0.14000
C 	C 	0.87270 0.33260 0.97380 -0.15500
C 	C 	0.79450 0.29110 0.93960 0.06400
C 	C 	0.77230 0.20490 0.91470 -0.12700
C 	C 	0.82730 0.16340 0.92270 0.06100
C 	C 	0.74050 0.33850 0.92760 0.03900
C 	C 	0.78710 0.43790 0.92900 -0.11300
C 	C 	0.86280 0.63900 0.95650 -0.11000
C 	C 	0.91220 0.73600 0.95600 0.06300
C 	C 	0.19940 0.02600 0.29423 0.26600
C 	C 	0.30200 0.09270 0.28853 -0.10200
C 	C 	0.36250 0.07020 0.31363 0.00800
C 	C 	0.45990 0.12730 0.30713 -0.09200
C 	C 	0.49660 0.20550 0.27293 0.01600
C 	C 	0.43260 0.22770 0.24803 -0.08300
C 	C 	0.33610 0.17270 0.25603 -0.00600
C 	C 	0.59800 0.25950 0.26093 0.05400
C 	C 	0.65080 0.21290 0.26233 -0.12700
C 	C 	0.77620 0.13720 0.28983 -0.11100
C 	C 	0.82380 0.08780 0.28933 0.04600
C 	C 	0.82660 0.80060 0.62757 0.33800
C 	C 	0.79070 0.69800 0.62187 -0.11300
C 	C 	0.70770 0.63750 0.64697 0.02600
C 	C 	0.66740 0.54010 0.64047 -0.09300
C 	C 	0.70890 0.50340 0.60627 0.02400
C 	C 	0.79510 0.56740 0.58137 -0.08500
C 	C 	0.83660 0.66390 0.58937 0.01300
C 	C 	0.66150 0.40200 0.59427 0.05900
C 	C 	0.56210 0.34920 0.59567 -0.12900
C 	C 	0.36100 0.22380 0.62317 -0.10500
C 	C 	0.26400 0.17620 0.62267 0.03200
C 	C 	0.02600 0.82660 0.46090 0.26600
C 	C 	0.09270 0.79070 0.45520 -0.09600
C 	C 	0.07020 0.70770 0.48030 0.00700
C 	C 	0.12730 0.66740 0.47380 -0.08800
C 	C 	0.20550 0.70890 0.43960 0.01600
C 	C 	0.22770 0.79510 0.41470 -0.07800
C 	C 	0.17270 0.83660 0.42270 -0.00400
C 	C 	0.25950 0.66150 0.42760 0.06000
C 	C 	0.21290 0.56210 0.42900 -0.13000
C 	C 	0.13720 0.36100 0.45650 -0.10700
C 	C 	0.08780 0.26400 0.45600 0.03100
C 	C 	0.80060 0.97400 0.79423 0.41000
C 	C 	0.69800 0.90730 0.78853 -0.13400
C 	C 	0.63750 0.92980 0.81363 0.04600
C 	C 	0.54010 0.87270 0.80713 -0.10000
C 	C 	0.50340 0.79450 0.77293 0.03300
C 	C 	0.56740 0.77230 0.74803 -0.09500
C 	C 	0.66390 0.82730 0.75603 0.02900
C 	C 	0.40200 0.74050 0.76093 0.05600
C 	C 	0.34920 0.78710 0.76233 -0.12400
C 	C 	0.22380 0.86280 0.78983 -0.10800
C 	C 	0.17620 0.91220 0.78933 0.04900
C 	C 	0.17340 0.19940 0.12757 0.34200
C 	C 	0.20930 0.30200 0.12187 -0.13000
C 	C 	0.29230 0.36250 0.14697 0.02900
C 	C 	0.33260 0.45990 0.14047 -0.10200
C 	C 	0.29110 0.49660 0.10627 0.02200
C 	C 	0.20490 0.43260 0.08137 -0.09700
C 	C 	0.16340 0.33610 0.08937 0.01100
C 	C 	0.33850 0.59800 0.09427 0.05200
C 	C 	0.43790 0.65080 0.09567 -0.12700
C 	C 	0.63900 0.77620 0.12317 -0.11600
C 	C 	0.73600 0.82380 0.12267 0.06200
C 	C 	0.80060 0.82660 0.37243 0.33800
C 	C 	0.69800 0.79070 0.37813 -0.11300
C 	C 	0.63750 0.70770 0.35303 0.02600
C 	C 	0.54010 0.66740 0.35953 -0.09300
C 	C 	0.50340 0.70890 0.39373 0.02400
C 	C 	0.56740 0.79510 0.41863 -0.08500
C 	C 	0.66390 0.83660 0.41063 0.01300
C 	C 	0.40200 0.66150 0.40573 0.05900
C 	C 	0.34920 0.56210 0.40433 -0.12900
C 	C 	0.22380 0.36100 0.37683 -0.10500
C 	C 	0.17620 0.26400 0.37733 0.03200
C 	C 	0.17340 0.97400 0.03910 0.39800
C 	C 	0.20930 0.90730 0.04480 -0.10300
C 	C 	0.29230 0.92980 0.01970 -0.05100
C 	C 	0.33260 0.87270 0.02620 -0.05200
C 	C 	0.29110 0.79450 0.06040 0.00000
C 	C 	0.20490 0.77230 0.08530 -0.07400
C 	C 	0.16340 0.82730 0.07730 -0.00700
C 	C 	0.33850 0.74050 0.07240 0.06100
C 	C 	0.43790 0.78710 0.07100 -0.13000
C 	C 	0.63900 0.86280 0.04350 -0.11600
C 	C 	0.73600 0.91220 0.04400 0.06200
C 	C 	0.02600 0.19940 0.70577 0.26900
C 	C 	0.09270 0.30200 0.71147 -0.10300
C 	C 	0.07020 0.36250 0.68637 0.01000
C 	C 	0.12730 0.45990 0.69287 -0.09300
C 	C 	0.20550 0.49660 0.72707 0.01800
C 	C 	0.22770 0.43260 0.75197 -0.08300
C 	C 	0.17270 0.33610 0.74397 -0.00400
C 	C 	0.25950 0.59800 0.73907 0.05500
C 	C 	0.21290 0.65080 0.73767 -0.12600
C 	C 	0.13720 0.77620 0.71017 -0.11200
C 	C 	0.08780 0.82380 0.71067 0.04700
C 	C 	0.19940 0.17340 0.87243 0.34200
C 	C 	0.30200 0.20930 0.87813 -0.12300
C 	C 	0.36250 0.29230 0.85303 0.03000
C 	C 	0.45990 0.33260 0.85953 -0.10000
C 	C 	0.49660 0.29110 0.89373 0.02800
C 	C 	0.43260 0.20490 0.91863 -0.09300
C 	C 	0.33610 0.16340 0.91063 0.01300
C 	C 	0.59800 0.33850 0.90573 0.04800
C 	C 	0.65080 0.43790 0.90433 -0.11700
C 	C 	0.77620 0.63900 0.87683 -0.11300
C 	C 	0.82380 0.73600 0.87733 0.06200
C 	C 	0.82660 0.02600 0.53910 0.26500
C 	C 	0.79070 0.09270 0.54480 -0.09600
C 	C 	0.70770 0.07020 0.51970 0.00700
C 	C 	0.66740 0.12730 0.52620 -0.08800
C 	C 	0.70890 0.20550 0.56040 0.01600
C 	C 	0.79510 0.22770 0.58530 -0.07800
C 	C 	0.83660 0.17270 0.57730 -0.00400
C 	C 	0.66150 0.25950 0.57240 0.06000
C 	C 	0.56210 0.21290 0.57100 -0.13000
C 	C 	0.36100 0.13720 0.54350 -0.10700
C 	C 	0.26400 0.08780 0.54400 0.03100
C 	C 	0.97400 0.80060 0.20577 0.41100
C 	C 	0.90730 0.69800 0.21147 -0.13600
C 	C 	0.92980 0.63750 0.18637 0.04300
C 	C 	0.87270 0.54010 0.19287 -0.10100
C 	C 	0.79450 0.50340 0.22707 0.03100
C 	C 	0.77230 0.56740 0.25197 -0.09600
C 	C 	0.82730 0.66390 0.24397 0.02800
C 	C 	0.74050 0.40200 0.23907 0.05400
C 	C 	0.78710 0.34920 0.23767 -0.12600
C 	C 	0.86280 0.22380 0.21017 -0.10700
C 	C 	0.91220 0.17620 0.21067 0.04700
C 	C 	0.64620 0.29240 0.91667 -0.11000
C 	C 	0.74230 0.48460 0.91667 0.05700
C 	C 	0.79530 0.59060 0.91667 0.05100
C 	C 	0.89270 0.78540 0.91667 -0.13400
C 	C 	0.94490 0.88980 0.91667 0.46600
C 	C 	0.64620 0.35380 0.25000 -0.12500
C 	C 	0.74230 0.25770 0.25000 0.06100
C 	C 	0.79530 0.20470 0.25000 0.03800
C 	C 	0.89270 0.10730 0.25000 -0.12900
C 	C 	0.94490 0.05510 0.25000 0.40300
C 	C 	0.70760 0.35380 0.58333 -0.12800
C 	C 	0.51540 0.25770 0.58333 0.06400
C 	C 	0.40940 0.20470 0.58333 0.03100
C 	C 	0.21460 0.10730 0.58333 -0.12000
C 	C 	0.11020 0.05510 0.58333 0.33500
C 	C 	0.35380 0.70760 0.41667 -0.12900
C 	C 	0.25770 0.51540 0.41667 0.06400
C 	C 	0.20470 0.40940 0.41667 0.03100
C 	C 	0.10730 0.21460 0.41667 -0.12100
C 	C 	0.05510 0.11020 0.41667 0.33600
C 	C 	0.35380 0.64620 0.75000 -0.12300
C 	C 	0.25770 0.74230 0.75000 0.06200
C 	C 	0.20470 0.79530 0.75000 0.04100
C 	C 	0.10730 0.89270 0.75000 -0.13000
C 	C 	0.05510 0.94490 0.75000 0.40400
C 	C 	0.29240 0.64620 0.08333 -0.12800
C 	C 	0.48460 0.74230 0.08333 0.06100
C 	C 	0.59060 0.79530 0.08333 0.04500
C 	C 	0.78540 0.89270 0.08333 -0.14400
C 	C 	0.88980 0.94490 0.08333 0.47000
O 	O 	0.96410 0.10590 0.93020 -0.46800
O 	O 	0.03700 0.20850 0.99560 -0.44600
O 	O 	0.00160 0.92980 0.95510 -0.44100
O 	O 	0.14180 0.03590 0.26353 -0.48100
O 	O 	0.17150 0.96300 0.32893 -0.34600
O 	O 	0.92820 0.99840 0.28843 -0.35300
O 	O 	0.89410 0.85820 0.59687 -0.45300
O 	O 	0.79150 0.82850 0.66227 -0.39000
O 	O 	0.07020 0.07180 0.62177 -0.44700
O 	O 	0.03590 0.89410 0.43020 -0.46700
O 	O 	0.96300 0.79150 0.49560 -0.34500
O 	O 	0.99840 0.07020 0.45510 -0.38800
O 	O 	0.85820 0.96410 0.76353 -0.44800
O 	O 	0.82850 0.03700 0.82893 -0.44900
O 	O 	0.07180 0.00160 0.78843 -0.48200
O 	O 	0.10590 0.14180 0.09687 -0.49300
O 	O 	0.20850 0.17150 0.16227 -0.41100
O 	O 	0.92980 0.92820 0.12177 -0.39100
O 	O 	0.85820 0.89410 0.40313 -0.45200
O 	O 	0.82850 0.79150 0.33773 -0.39000
O 	O 	0.07180 0.07020 0.37823 -0.44700
O 	O 	0.10590 0.96410 0.06980 -0.47100
O 	O 	0.20850 0.03700 0.00440 -0.47900
O 	O 	0.92980 0.00160 0.04490 -0.46800
O 	O 	0.03590 0.14180 0.73647 -0.48100
O 	O 	0.96300 0.17150 0.67107 -0.34800
O 	O 	0.99840 0.92820 0.71157 -0.35400
O 	O 	0.14180 0.10590 0.90313 -0.48100
O 	O 	0.17150 0.20850 0.83773 -0.40800
O 	O 	0.92820 0.92980 0.87823 -0.38600
O 	O 	0.89410 0.03590 0.56980 -0.46700
O 	O 	0.79150 0.96300 0.50440 -0.34400
O 	O 	0.07020 0.99840 0.54490 -0.38800
O 	O 	0.96410 0.85820 0.23647 -0.44800
O 	O 	0.03700 0.82850 0.17107 -0.45300
O 	O 	0.00160 0.07180 0.21157 -0.48200
