data_crystal

_cell_length_a 6.44630
_cell_length_b 10.97280
_cell_length_c 16.09960
_cell_angle_alpha 90.00000
_cell_angle_beta  99.77500
_cell_angle_gamma 90.00000

_symmetry_space_group_name_	'P 1'
_symmetry_space_group_name_H-M	'P 1'

loop_
_symmetry_equiv_pos_as_xyz
  x,y,z

loop_
_atom_site_label
_atom_site_type_symbol
_atom_site_fract_x
_atom_site_fract_y
_atom_site_fract_z
_atom_site_charge
Ca	Ca	0.24297 0.92848 0.95223 1.50200
Ca	Ca	0.25703 0.42848 0.54777 1.50400
Ca	Ca	0.75703 0.07152 0.04777 1.50200
Ca	Ca	0.74297 0.57152 0.45223 1.50400
H 	H 	0.56690 0.71760 0.76530 0.07900
H 	H 	0.26540 0.77260 0.76620 0.00100
H 	H 	0.71990 0.62430 0.66240 -0.00200
H 	H 	0.93310 0.21760 0.73470 0.07600
H 	H 	0.23460 0.27260 0.73380 0.00200
H 	H 	0.78010 0.12430 0.83760 0.00200
H 	H 	0.43310 0.28240 0.23470 0.07800
H 	H 	0.73460 0.22740 0.23380 0.00000
H 	H 	0.28010 0.37570 0.33760 -0.00200
H 	H 	0.06690 0.78240 0.26530 0.07600
H 	H 	0.76540 0.72740 0.26620 0.00200
H 	H 	0.21990 0.87570 0.16240 0.00200
C 	C 	0.01190 0.68970 0.70260 -0.16300
C 	C 	0.82860 0.80300 0.82300 -0.03200
C 	C 	0.70920 0.72920 0.76390 -0.08500
C 	C 	0.12170 0.76240 0.76500 0.08500
C 	C 	0.80010 0.67300 0.70290 0.05500
C 	C 	0.12140 0.62460 0.63930 0.39000
C 	C 	0.73070 0.86730 0.89030 0.37200
C 	C 	0.48810 0.18970 0.79740 -0.15500
C 	C 	0.67140 0.30300 0.67700 -0.03800
C 	C 	0.79080 0.22920 0.73610 -0.07800
C 	C 	0.37830 0.26240 0.73500 0.08300
C 	C 	0.69990 0.17300 0.79710 0.04700
C 	C 	0.37860 0.12460 0.86070 0.38700
C 	C 	0.76930 0.36730 0.60970 0.37400
C 	C 	0.98810 0.31030 0.29740 -0.16300
C 	C 	0.17140 0.19700 0.17700 -0.03200
C 	C 	0.29080 0.27080 0.23610 -0.08500
C 	C 	0.87830 0.23760 0.23500 0.08500
C 	C 	0.19990 0.32700 0.29710 0.05500
C 	C 	0.87860 0.37540 0.36070 0.39000
C 	C 	0.26930 0.13270 0.10970 0.37200
C 	C 	0.51190 0.81030 0.20260 -0.15500
C 	C 	0.32860 0.69700 0.32300 -0.03800
C 	C 	0.20920 0.77080 0.26390 -0.07800
C 	C 	0.62170 0.73760 0.26500 0.08300
C 	C 	0.30010 0.82700 0.20290 0.04700
C 	C 	0.62140 0.87540 0.13930 0.38700
C 	C 	0.23070 0.63270 0.39030 0.37400
N 	N 	0.03370 0.81910 0.82410 -0.21300
N 	N 	0.46630 0.31910 0.67590 -0.20800
N 	N 	0.96630 0.18090 0.17590 -0.21300
N 	N 	0.53370 0.68090 0.32410 -0.20800
O 	O 	0.85400 0.93100 0.94263 -0.56900
O 	O 	0.53860 0.85200 0.88799 -0.44800
O 	O 	0.30820 0.59470 0.66076 -0.41200
O 	O 	0.01600 0.60050 0.56863 -0.56800
O 	O 	0.64600 0.43100 0.55737 -0.56900
O 	O 	0.96140 0.35200 0.61201 -0.44700
O 	O 	0.19180 0.09470 0.83924 -0.40800
O 	O 	0.48400 0.10050 0.93137 -0.56300
O 	O 	0.14600 0.06900 0.05737 -0.56900
O 	O 	0.46140 0.14800 0.11201 -0.44800
O 	O 	0.69180 0.40530 0.33924 -0.41200
O 	O 	0.98400 0.39950 0.43137 -0.56800
O 	O 	0.35400 0.56900 0.44263 -0.56900
O 	O 	0.03860 0.64800 0.38799 -0.44700
O 	O 	0.80820 0.90530 0.16076 -0.40800
O 	O 	0.51600 0.89950 0.06863 -0.56300
