data_crystal

_cell_length_a 12.19480
_cell_length_b 13.78350
_cell_length_c 18.38400
_cell_angle_alpha 90.00000
_cell_angle_beta  90.00000
_cell_angle_gamma 113.96000

_symmetry_space_group_name_	'P 1'
_symmetry_space_group_name_H-M	'P 1'

loop_
_symmetry_equiv_pos_as_xyz
  x,y,z

loop_
_atom_site_label
_atom_site_type_symbol
_atom_site_fract_x
_atom_site_fract_y
_atom_site_fract_z
_atom_site_charge
Mg	Mg	0.68007 0.91583 0.52072 1.46600
Mg	Mg	0.81993 0.08417 0.02072 1.44300
Mg	Mg	0.31993 0.08417 0.47928 1.44700
Mg	Mg	0.18007 0.91583 0.97928 1.46800
Mg	Mg	0.00000 -0.00000 0.50000 1.46300
Mg	Mg	0.50000 0.00000 -0.00000 1.46000
H 	H 	0.65880 0.70980 0.69850 0.02500
H 	H 	0.63810 0.56520 0.77190 0.05900
H 	H 	0.94850 0.56880 0.69050 0.06400
H 	H 	0.97330 0.71850 0.62130 0.04100
H 	H 	0.58800 0.37610 0.75780 0.06300
H 	H 	0.55380 0.22050 0.82200 0.00400
H 	H 	0.90600 0.33300 0.87430 0.01600
H 	H 	0.94190 0.48730 0.80810 0.07200
H 	H 	0.00060 0.22670 0.55420 -0.02800
H 	H 	0.08890 0.41110 0.56320 0.10900
H 	H 	0.84120 0.43000 0.42420 0.09000
H 	H 	0.74840 0.24540 0.41880 -0.02400
H 	H 	0.84120 0.29020 0.19850 0.00300
H 	H 	0.86190 0.43480 0.27190 0.06500
H 	H 	0.55150 0.43120 0.19050 0.06400
H 	H 	0.52670 0.28150 0.12130 0.01900
H 	H 	0.91200 0.62390 0.25780 0.06600
H 	H 	0.94620 0.77950 0.32200 0.03700
H 	H 	0.59400 0.66700 0.37430 0.02100
H 	H 	0.55810 0.51270 0.30810 0.05900
H 	H 	0.49940 0.77330 0.05420 0.02700
H 	H 	0.41110 0.58890 0.06320 0.09200
H 	H 	0.65880 0.57000 0.92420 0.08800
H 	H 	0.75160 0.75460 0.91880 0.01500
H 	H 	0.34120 0.29020 0.30150 0.00300
H 	H 	0.36190 0.43480 0.22810 0.06100
H 	H 	0.05150 0.43120 0.30950 0.06100
H 	H 	0.02670 0.28150 0.37870 0.01900
H 	H 	0.41200 0.62390 0.24220 0.06500
H 	H 	0.44620 0.77950 0.17800 0.03500
H 	H 	0.09400 0.66700 0.12570 0.01300
H 	H 	0.05810 0.51270 0.19190 0.05400
H 	H 	0.99940 0.77330 0.44580 0.08300
H 	H 	0.91110 0.58890 0.43680 0.01800
H 	H 	0.15880 0.57000 0.57580 0.02800
H 	H 	0.25160 0.75460 0.58120 0.04600
H 	H 	0.15880 0.70980 0.80150 0.02200
H 	H 	0.13810 0.56520 0.72810 0.05400
H 	H 	0.44850 0.56880 0.80950 0.06100
H 	H 	0.47330 0.71850 0.87870 0.04000
H 	H 	0.08800 0.37610 0.74220 0.06100
H 	H 	0.05380 0.22050 0.67800 0.00100
H 	H 	0.40600 0.33300 0.62570 0.00600
H 	H 	0.44190 0.48730 0.69190 0.06600
H 	H 	0.50060 0.22670 0.94580 0.03100
H 	H 	0.58890 0.41110 0.93680 0.03500
H 	H 	0.34120 0.43000 0.07580 0.03100
H 	H 	0.24840 0.24540 0.08120 0.00700
C 	C 	0.82699 0.81854 0.60149 0.43800
C 	C 	0.81701 0.72754 0.65119 -0.12600
C 	C 	0.71797 0.68153 0.69681 0.04200
C 	C 	0.70497 0.59437 0.74005 -0.10300
C 	C 	0.78895 0.54930 0.73714 0.03100
C 	C 	0.88930 0.59712 0.69241 -0.09700
C 	C 	0.90366 0.68604 0.65052 0.04000
C 	C 	0.76851 0.44997 0.77771 0.04600
C 	C 	0.65292 0.36814 0.78171 -0.12500
C 	C 	0.63235 0.27534 0.82035 0.05400
C 	C 	0.72563 0.26213 0.85648 -0.15600
C 	C 	0.84112 0.34180 0.85101 0.05900
C 	C 	0.86242 0.43426 0.81177 -0.12000
C 	C 	0.70196 0.16665 0.90495 0.44000
C 	C 	0.80335 0.09949 0.48659 0.39700
C 	C 	0.86487 0.21764 0.48666 -0.21700
C 	C 	0.96668 0.26779 0.52872 0.16800
C 	C 	0.01951 0.37797 0.53384 -0.24100
C 	C 	0.97248 0.44105 0.49652 0.15900
C 	C 	0.87249 0.38910 0.45217 -0.19900
C 	C 	0.81788 0.27893 0.44802 0.11600
C 	C 	0.67301 0.18146 0.10149 0.44800
C 	C 	0.68299 0.27246 0.15119 -0.16500
C 	C 	0.78203 0.31847 0.19681 0.05600
C 	C 	0.79503 0.40563 0.24005 -0.12500
C 	C 	0.71105 0.45070 0.23714 0.04200
C 	C 	0.61070 0.40288 0.19241 -0.11900
C 	C 	0.59634 0.31396 0.15052 0.04900
C 	C 	0.73149 0.55003 0.27771 0.03100
C 	C 	0.84708 0.63186 0.28171 -0.10300
C 	C 	0.86765 0.72466 0.32035 0.03900
C 	C 	0.77437 0.73787 0.35648 -0.12800
C 	C 	0.65888 0.65820 0.35101 0.04100
C 	C 	0.63758 0.56574 0.31177 -0.10700
C 	C 	0.79804 0.83335 0.40495 0.42700
C 	C 	0.69665 0.90051 0.98659 0.38900
C 	C 	0.63513 0.78236 0.98666 -0.11100
C 	C 	0.53332 0.73221 0.02872 0.03400
C 	C 	0.48049 0.62203 0.03384 -0.20200
C 	C 	0.52752 0.55895 0.99652 0.17800
C 	C 	0.62751 0.61090 0.95217 -0.16800
C 	C 	0.68212 0.72107 0.94802 0.07300
C 	C 	0.17301 0.18146 0.39851 0.44800
C 	C 	0.18299 0.27246 0.34881 -0.16100
C 	C 	0.28203 0.31847 0.30319 0.05300
C 	C 	0.29503 0.40563 0.25995 -0.12300
C 	C 	0.21105 0.45070 0.26286 0.04000
C 	C 	0.11070 0.40288 0.30759 -0.11700
C 	C 	0.09634 0.31396 0.34948 0.04900
C 	C 	0.23149 0.55003 0.22229 0.03200
C 	C 	0.34708 0.63186 0.21829 -0.10500
C 	C 	0.36765 0.72466 0.17965 0.04000
C 	C 	0.27437 0.73787 0.14352 -0.13200
C 	C 	0.15888 0.65820 0.14899 0.04100
C 	C 	0.13758 0.56574 0.18823 -0.11100
C 	C 	0.29804 0.83335 0.09505 0.42800
C 	C 	0.19665 0.90051 0.51341 0.32300
C 	C 	0.13513 0.78236 0.51334 -0.05200
C 	C 	0.03332 0.73221 0.47128 -0.09200
C 	C 	0.98049 0.62203 0.46616 0.03100
C 	C 	0.02752 0.55895 0.50348 -0.08400
C 	C 	0.12751 0.61090 0.54783 -0.02200
C 	C 	0.18212 0.72107 0.55198 -0.03800
C 	C 	0.32699 0.81854 0.89851 0.43900
C 	C 	0.31701 0.72754 0.84881 -0.12500
C 	C 	0.21797 0.68153 0.80319 0.04000
C 	C 	0.20497 0.59437 0.75995 -0.10200
C 	C 	0.28895 0.54930 0.76286 0.02800
C 	C 	0.38930 0.59712 0.80759 -0.09600
C 	C 	0.40366 0.68604 0.84948 0.04000
C 	C 	0.26851 0.44997 0.72229 0.04700
C 	C 	0.15292 0.36814 0.71829 -0.12800
C 	C 	0.13235 0.27534 0.67965 0.05700
C 	C 	0.22563 0.26213 0.64352 -0.16400
C 	C 	0.34112 0.34180 0.64899 0.05900
C 	C 	0.36242 0.43426 0.68823 -0.12600
C 	C 	0.20196 0.16665 0.59505 0.44300
C 	C 	0.30335 0.09949 0.01341 0.31300
C 	C 	0.36487 0.21764 0.01334 -0.16200
C 	C 	0.46668 0.26779 0.97128 0.04800
C 	C 	0.51951 0.37797 0.96616 -0.00200
C 	C 	0.47248 0.44105 0.00348 -0.10600
C 	C 	0.37249 0.38910 0.04783 -0.05200
C 	C 	0.31788 0.27893 0.05198 0.00600
O 	O 	0.92845 0.87694 0.57684 -0.43800
O 	O 	0.72960 0.82622 0.58845 -0.53900
O 	O 	0.59418 0.10621 0.91731 -0.51300
O 	O 	0.79311 0.15751 0.93000 -0.55400
O 	O 	0.69754 0.05575 0.46414 -0.57600
O 	O 	0.85629 0.04500 0.51447 -0.68100
O 	O 	0.57155 0.12306 0.07684 -0.54300
O 	O 	0.77040 0.17378 0.08845 -0.61600
O 	O 	0.90582 0.89379 0.41731 -0.43300
O 	O 	0.70689 0.84249 0.43000 -0.49900
O 	O 	0.80246 0.94425 0.96414 -0.44400
O 	O 	0.64371 0.95500 0.01447 -0.58800
O 	O 	0.07155 0.12306 0.42316 -0.53200
O 	O 	0.27040 0.17378 0.41155 -0.60400
O 	O 	0.40582 0.89379 0.08269 -0.44200
O 	O 	0.20689 0.84249 0.07000 -0.51300
O 	O 	0.30246 0.94425 0.53586 -0.44200
O 	O 	0.14371 0.95500 0.48553 -0.55000
O 	O 	0.42845 0.87694 0.92316 -0.43500
O 	O 	0.22960 0.82622 0.91155 -0.53500
O 	O 	0.09418 0.10621 0.58269 -0.53100
O 	O 	0.29311 0.15751 0.57000 -0.57900
O 	O 	0.19754 0.05575 0.03586 -0.57400
O 	O 	0.35629 0.04500 0.98553 -0.62400
