data_crystal

_cell_length_a 32.36620
_cell_length_b 32.36620
_cell_length_c 25.81980
_cell_angle_alpha 90.00000
_cell_angle_beta  90.00000
_cell_angle_gamma 90.29000

_symmetry_space_group_name_	'P 1'
_symmetry_space_group_name_H-M	'P 1'

loop_
_symmetry_equiv_pos_as_xyz
  x,y,z

loop_
_atom_site_label
_atom_site_type_symbol
_atom_site_fract_x
_atom_site_fract_y
_atom_site_fract_z
_atom_site_charge
C 	C 	0.97648 0.12886 0.03849 -0.08700
C 	C 	0.96223 0.08814 0.03972 0.06000
C 	C 	0.91685 0.07727 0.04013 -0.01600
C 	C 	0.90908 0.03324 0.04441 0.06400
C 	C 	0.86814 0.01990 0.04597 -0.01000
Ni	Ni	0.99728 0.99915 0.04724 0.94200
C 	C 	0.90902 0.96515 0.05012 0.06100
C 	C 	0.86812 0.97809 0.04852 -0.07000
C 	C 	0.07851 0.07672 0.03997 -0.01600
H 	H 	0.95557 0.84221 0.05645 0.05500
H 	H 	0.03723 0.84200 0.05658 0.04100
H 	H 	0.15385 0.95907 0.04922 0.05200
H 	H 	0.15471 0.03773 0.04487 0.04400
N 	N 	0.99700 0.93710 0.05319 -0.29300
N 	N 	0.05827 0.99892 0.04723 -0.28300
N 	N 	0.99760 0.06124 0.04129 -0.28500
N 	N 	0.93627 0.99927 0.04726 -0.29400
H 	H 	0.03926 0.15599 0.03786 0.04000
H 	H 	0.95741 0.15625 0.03791 0.05400
H 	H 	0.84027 0.03827 0.04496 0.04400
H 	H 	0.84028 0.95942 0.04942 0.05200
C 	C 	0.96158 0.91030 0.05477 0.06100
C 	C 	0.97501 0.86948 0.05595 -0.08900
C 	C 	0.01813 0.86936 0.05601 0.00900
C 	C 	0.03209 0.91012 0.05484 0.06600
C 	C 	0.07705 0.92089 0.05455 -0.01600
C 	C 	0.08519 0.96477 0.05012 0.06500
C 	C 	0.12620 0.97768 0.04844 -0.07000
C 	C 	0.12661 0.01943 0.04588 -0.01200
C 	C 	0.08581 0.03278 0.04431 0.06700
C 	C 	0.91681 0.92128 0.05443 -0.01700
C 	C 	0.03335 0.08791 0.03965 0.06400
C 	C 	0.01976 0.12872 0.03846 0.00700
C 	C 	0.11802 0.72659 0.06798 -0.03800
C 	C 	0.15935 0.71473 0.06842 0.05400
C 	C 	0.16835 0.67107 0.06777 -0.01100
C 	C 	0.21396 0.66158 0.07097 0.04600
C 	C 	0.22892 0.62128 0.07222 -0.03600
Ni	Ni	0.24667 0.75178 0.07358 0.95500
C 	C 	0.28505 0.66388 0.07603 0.04600
C 	C 	0.27216 0.62268 0.07467 -0.03600
C 	C 	0.16348 0.82691 0.06758 -0.01200
H 	H 	0.40524 0.71896 0.98020 0.04600
H 	H 	0.40220 0.79892 0.98016 0.05100
H 	H 	0.28048 0.91033 0.07567 0.04200
H 	H 	0.19941 0.90688 0.07158 0.04700
N 	N 	0.30822 0.75461 0.07798 -0.27600
N 	N 	0.24384 0.81353 0.07343 -0.27300
N 	N 	0.18557 0.74962 0.06936 -0.28000
N 	N 	0.24879 0.68956 0.07356 -0.27000
H 	H 	0.08837 0.78599 0.06767 0.05000
H 	H 	0.09065 0.70729 0.06792 0.05000
H 	H 	0.21037 0.59333 0.07125 0.04600
H 	H 	0.29210 0.59593 0.07553 0.04700
C 	C 	0.33656 0.72118 0.07908 0.04900
C 	C 	0.37686 0.73660 0.07985 -0.03600
C 	C 	0.37532 0.77902 0.07993 -0.03900
C 	C 	0.33408 0.79056 0.07928 0.05200
C 	C 	0.32284 0.83458 0.07947 -0.01100
C 	C 	0.27763 0.84182 0.07593 0.04700
C 	C 	0.26239 0.88208 0.07464 -0.03600
C 	C 	0.21961 0.88040 0.07224 -0.03900
C 	C 	0.20773 0.83914 0.07086 0.05100
C 	C 	0.33016 0.67600 0.07937 -0.00900
C 	C 	0.15717 0.78272 0.06828 0.05400
C 	C 	0.11671 0.76832 0.06788 -0.03900
C 	C 	0.48540 0.86563 0.09022 -0.03600
C 	C 	0.47014 0.90587 0.09124 0.04800
C 	C 	0.42486 0.91309 0.09117 -0.01300
C 	C 	0.41361 0.95702 0.09502 0.05900
C 	C 	0.37236 0.96852 0.09654 -0.06900
Ni	Ni	0.50117 0.99575 0.99799 0.94800
C 	C 	0.41115 0.02629 0.10062 0.05800
C 	C 	0.37083 0.01091 0.09915 -0.00900
C 	C 	0.58445 0.92074 0.99105 -0.01400
H 	H 	0.45576 0.15138 0.10680 0.04700
H 	H 	0.53752 0.15397 0.00698 0.04700
H 	H 	0.65732 0.04026 0.99982 0.04200
H 	H 	0.65960 0.96154 0.99552 0.04900
N 	N 	0.49905 0.05779 0.10360 -0.26600
N 	N 	0.56237 0.99789 0.99798 -0.29600
N 	N 	0.50399 0.93415 0.99252 -0.27600
N 	N 	0.43950 0.99292 0.09786 -0.28900
H 	H 	0.54837 0.84086 0.98977 0.04600
H 	H 	0.46731 0.83738 0.08978 0.04300
H 	H 	0.34549 0.94861 0.09572 0.05600
H 	H 	0.34246 0.02855 0.10027 0.04200
C 	C 	0.46274 0.08345 0.10506 0.04700
C 	C 	0.47569 0.12463 0.10626 -0.03800
C 	C 	0.51896 0.12603 0.00636 -0.03800
C 	C 	0.53394 0.08575 0.00524 0.04700
C 	C 	0.57959 0.07629 0.00496 -0.01600
C 	C 	0.58861 0.03272 0.00071 0.06900
C 	C 	0.62995 0.02093 0.99906 -0.01700
C 	C 	0.63126 0.97922 0.99657 -0.07000
C 	C 	0.59079 0.96485 0.99514 0.05900
C 	C 	0.41757 0.07138 0.10470 -0.01300
C 	C 	0.54014 0.90856 0.99099 0.04900
C 	C 	0.52820 0.86733 0.99012 -0.04100
C 	C 	0.12006 0.22693 0.02719 -0.03900
C 	C 	0.16089 0.21361 0.02677 0.05200
C 	C 	0.16813 0.16955 0.02738 -0.01200
C 	C 	0.21317 0.15816 0.02425 0.04500
C 	C 	0.22638 0.11722 0.02295 -0.03700
Ni	Ni	0.24949 0.24712 0.02182 0.95300
C 	C 	0.28417 0.15731 0.01931 0.04600
C 	C 	0.26960 0.11670 0.02055 -0.03700
C 	C 	0.16906 0.32590 0.02759 -0.01100
H 	H 	0.40618 0.20685 0.01584 0.04600
H 	H 	0.40662 0.28631 0.01587 0.04600
H 	H 	0.29115 0.40457 0.01990 0.04700
H 	H 	0.20942 0.40472 0.02412 0.04600
N 	N 	0.31063 0.24669 0.01774 -0.28000
N 	N 	0.24975 0.30957 0.02192 -0.27000
N 	N 	0.18841 0.24758 0.02584 -0.28200
N 	N 	0.24905 0.18466 0.02178 -0.27000
H 	H 	0.09254 0.28717 0.02743 0.05000
H 	H 	0.09199 0.20860 0.02732 0.04900
H 	H 	0.20666 0.09011 0.02377 0.04700
H 	H 	0.28843 0.08911 0.01957 0.04800
C 	C 	0.33763 0.21213 0.01666 0.05000
C 	C 	0.37852 0.22553 0.01613 -0.03900
C 	C 	0.37875 0.26765 0.01615 -0.03800
C 	C 	0.33798 0.28108 0.01672 0.04900
C 	C 	0.33044 0.32562 0.01626 -0.01100
C 	C 	0.28532 0.33643 0.01947 0.04600
C 	C 	0.27172 0.37724 0.02078 -0.03800
C 	C 	0.22852 0.37734 0.02320 -0.03800
C 	C 	0.21441 0.33660 0.02445 0.04600
C 	C 	0.32972 0.16748 0.01614 -0.01000
C 	C 	0.16132 0.28178 0.02687 0.05200
C 	C 	0.12034 0.26868 0.02724 -0.03900
C 	C 	0.61872 0.22846 0.01738 -0.03900
C 	C 	0.65958 0.21532 0.01781 0.05200
C 	C 	0.66710 0.17124 0.01722 -0.01200
C 	C 	0.71219 0.16023 0.02029 0.04600
C 	C 	0.72580 0.11943 0.02158 -0.03700
Ni	Ni	0.74799 0.24935 0.02259 0.95400
C 	C 	0.78312 0.16010 0.02506 0.04600
C 	C 	0.76902 0.11935 0.02389 -0.03700
C 	C 	0.66750 0.32779 0.01707 -0.01100
H 	H 	0.90493 0.20981 0.02794 0.04400
H 	H 	0.90534 0.28840 0.02790 0.04400
H 	H 	0.78985 0.40653 0.02456 0.04600
H 	H 	0.70802 0.40677 0.02049 0.04600
N 	N 	0.80902 0.24918 0.02643 -0.28200
N 	N 	0.74824 0.31168 0.02255 -0.27000
N 	N 	0.68694 0.24948 0.01874 -0.28200
N 	N 	0.74779 0.18703 0.02265 -0.27000
H 	H 	0.59097 0.28869 0.11715 0.04600
H 	H 	0.59074 0.20989 0.11719 0.04600
H 	H 	0.70639 0.09213 0.02088 0.04700
H 	H 	0.78813 0.09198 0.02480 0.04700
C 	C 	0.83615 0.21507 0.02739 0.05300
C 	C 	0.87711 0.22825 0.02777 -0.04000
C 	C 	0.87730 0.27000 0.02775 -0.03900
C 	C 	0.83646 0.28323 0.02736 0.05200
C 	C 	0.82909 0.32728 0.02801 -0.01200
C 	C 	0.78394 0.33842 0.02497 0.04500
C 	C 	0.77036 0.37925 0.02372 -0.03700
C 	C 	0.72710 0.37937 0.02136 -0.03800
C 	C 	0.71288 0.33863 0.02013 0.04600
C 	C 	0.82840 0.17097 0.02805 -0.01200
C 	C 	0.65978 0.28360 0.01774 0.05200
C 	C 	0.61882 0.27027 0.11735 -0.04000
C 	C 	0.62140 0.72800 0.07781 -0.03900
C 	C 	0.66219 0.71461 0.07747 0.05300
C 	C 	0.66946 0.67057 0.07812 -0.01200
C 	C 	0.71457 0.65934 0.07506 0.04600
C 	C 	0.72812 0.61850 0.07380 -0.03700
Ni	Ni	0.75060 0.74830 0.07268 0.95500
C 	C 	0.78560 0.65911 0.07020 0.04600
C 	C 	0.77139 0.61837 0.07144 -0.03800
C 	C 	0.67093 0.82673 0.07837 -0.01300
H 	H 	0.90749 0.70917 0.06720 0.04400
H 	H 	0.90748 0.78800 0.06724 0.04300
H 	H 	0.79234 0.90548 0.07083 0.04500
H 	H 	0.71068 0.90570 0.07497 0.04500
N 	N 	0.81152 0.74818 0.06876 -0.28300
N 	N 	0.75089 0.81054 0.07274 -0.27100
N 	N 	0.68971 0.74853 0.07658 -0.28300
N 	N 	0.75027 0.68604 0.07264 -0.27000
H 	H 	0.59417 0.78833 0.07784 0.04600
H 	H 	0.59330 0.70973 0.07786 0.04700
H 	H 	0.70862 0.59123 0.07464 0.04500
H 	H 	0.79046 0.59097 0.07056 0.04500
C 	C 	0.83869 0.71415 0.06778 0.05300
C 	C 	0.87961 0.72753 0.06737 -0.04000
C 	C 	0.87963 0.76936 0.06737 -0.04000
C 	C 	0.83875 0.78236 0.06777 0.05200
C 	C 	0.83098 0.82633 0.06711 -0.01300
C 	C 	0.78627 0.83736 0.07027 0.04800
C 	C 	0.77288 0.87821 0.07162 -0.03800
C 	C 	0.72978 0.87833 0.07403 -0.03900
C 	C 	0.71584 0.83754 0.07527 0.04800
C 	C 	0.83093 0.67003 0.06714 -0.01200
C 	C 	0.66281 0.78275 0.07758 0.05300
C 	C 	0.62182 0.76977 0.07785 -0.04000
C 	C 	0.47609 0.37051 0.00615 -0.03700
C 	C 	0.46247 0.41130 0.00494 0.04600
C 	C 	0.41730 0.42207 0.00459 -0.01300
C 	C 	0.40975 0.46653 0.00047 0.05500
C 	C 	0.36894 0.47991 0.09897 -0.03800
Ni	Ni	0.49835 0.50041 0.99769 0.95200
C 	C 	0.41008 0.53535 0.09492 0.05000
C 	C 	0.36917 0.52200 0.09643 -0.03900
C 	C 	0.57886 0.42177 0.00481 -0.01300
H 	H 	0.45939 0.65821 0.08858 0.04700
H 	H 	0.54118 0.65718 0.08855 0.04500
H 	H 	0.65594 0.53889 0.09555 0.04700
H 	H 	0.65541 0.46034 0.99998 0.04700
N 	N 	0.49877 0.56269 0.09194 -0.27000
N 	N 	0.55952 0.49994 0.99770 -0.28400
N 	N 	0.49809 0.43813 0.00344 -0.27000
N 	N 	0.43709 0.50085 0.09769 -0.28000
H 	H 	0.53840 0.34302 0.00683 0.04600
H 	H 	0.45665 0.34319 0.00671 0.04600
H 	H 	0.34110 0.46126 0.99996 0.04500
H 	H 	0.34152 0.54070 0.09546 0.04600
C 	C 	0.46361 0.59003 0.09042 0.04500
C 	C 	0.47822 0.63062 0.08920 -0.03800
C 	C 	0.52146 0.63008 0.08914 -0.03700
C 	C 	0.53469 0.58916 0.09030 0.04500
C 	C 	0.57979 0.57778 0.09058 -0.01200
C 	C 	0.58704 0.53382 0.09487 0.05200
C 	C 	0.62790 0.52057 0.99647 -0.03800
C 	C 	0.62762 0.47884 0.99900 -0.04600
C 	C 	0.58663 0.46580 0.00055 0.05900
C 	C 	0.41802 0.57992 0.09079 -0.01000
C 	C 	0.53346 0.41112 0.00507 0.04600
C 	C 	0.51931 0.37040 0.00622 -0.03800
C 	C 	0.97881 0.62791 0.05640 -0.08300
C 	C 	0.96469 0.58717 0.05520 0.03000
C 	C 	0.91937 0.57634 0.05482 -0.00800
C 	C 	0.91161 0.53234 0.05048 0.04900
C 	C 	0.87063 0.51922 0.04889 -0.03700
Ni	Ni	0.99987 0.49814 0.04759 0.93900
C 	C 	0.91130 0.46432 0.04472 0.05400
C 	C 	0.87044 0.47749 0.04633 -0.04000
C 	C 	0.08085 0.57611 0.05494 -0.00800
H 	H 	0.95801 0.34119 0.03813 0.05300
H 	H 	0.03984 0.34096 0.03807 0.03900
H 	H 	0.15697 0.45879 0.04530 0.04700
H 	H 	0.15720 0.53759 0.04999 0.04600
N 	N 	0.99962 0.43599 0.04157 -0.29200
N 	N 	0.06100 0.49802 0.04760 -0.27300
N 	N 	0.00007 0.56027 0.05360 -0.24300
N 	N 	0.93875 0.49830 0.04759 -0.28400
H 	H 	0.04143 0.65512 0.05693 0.03800
H 	H 	0.95969 0.65526 0.05696 0.05200
H 	H 	0.84281 0.53767 0.04987 0.04600
H 	H 	0.84241 0.45908 0.04537 0.04700
C 	C 	0.96388 0.40927 0.03996 0.05600
C 	C 	0.97749 0.36847 0.03872 -0.08700
C 	C 	0.02077 0.36834 0.03868 0.00700
C 	C 	0.03502 0.40907 0.03990 0.06100
C 	C 	0.08045 0.41986 0.04024 -0.01400
C 	C 	0.08818 0.46396 0.04466 0.05700
C 	C 	0.12913 0.47722 0.04629 -0.04100
C 	C 	0.12926 0.51902 0.04895 -0.03800
C 	C 	0.08838 0.53211 0.05055 0.05100
C 	C 	0.91868 0.42036 0.04037 -0.01500
C 	C 	0.03570 0.58706 0.05524 0.03500
C 	C 	0.02204 0.62783 0.05641 0.01300
N 	N 	0.11936 0.10355 0.03605 -0.06000
N 	N 	0.12727 0.14268 0.03076 -0.06000
N 	N 	0.11681 0.89320 0.05875 -0.05900
N 	N 	0.12315 0.85385 0.06386 -0.06000
N 	N 	0.39400 0.87515 0.08727 -0.06000
N 	N 	0.35366 0.87256 0.08337 -0.06100
N 	N 	0.36981 0.13883 0.01270 -0.06000
N 	N 	0.37686 0.09908 0.00844 -0.05900
N 	N 	0.87693 0.89353 0.05845 -0.05800
N 	N 	0.87084 0.85415 0.06356 -0.06000
N 	N 	0.87632 0.10443 0.03634 -0.05900
N 	N 	0.86889 0.14370 0.03136 -0.05900
N 	N 	0.62660 0.14378 0.01392 -0.05900
N 	N 	0.61957 0.10445 0.00883 -0.05900
N 	N 	0.62481 0.89385 0.08706 -0.05900
N 	N 	0.63117 0.85450 0.08200 -0.06000
N 	N 	0.62068 0.60457 0.08672 -0.05900
N 	N 	0.62861 0.64369 0.08146 -0.05900
N 	N 	0.62693 0.35513 0.01369 -0.05900
N 	N 	0.61940 0.39442 0.00868 -0.05900
N 	N 	0.86992 0.35428 0.03132 -0.05900
N 	N 	0.87783 0.39343 0.03652 -0.05900
N 	N 	0.87144 0.64280 0.06377 -0.05900
N 	N 	0.87886 0.60355 0.05869 -0.05900
N 	N 	0.37714 0.39373 0.00840 -0.05900
N 	N 	0.37057 0.35403 0.01282 -0.06000
N 	N 	0.37087 0.64827 0.08281 -0.05900
N 	N 	0.37791 0.60851 0.08695 -0.06000
N 	N 	0.12839 0.64282 0.06430 -0.05900
N 	N 	0.12137 0.60351 0.05890 -0.06000
N 	N 	0.12855 0.35331 0.03109 -0.06000
N 	N 	0.12103 0.39260 0.03624 -0.06000
C 	C 	0.97647 0.12886 0.13849 -0.08900
C 	C 	0.96223 0.08814 0.13972 0.05800
C 	C 	0.91684 0.07727 0.14013 -0.01700
C 	C 	0.90908 0.03324 0.14441 0.06300
C 	C 	0.86814 0.01990 0.14597 -0.01100
Ni	Ni	0.99728 0.99916 0.14724 0.94000
C 	C 	0.90902 0.96516 0.15012 0.06000
C 	C 	0.86812 0.97809 0.14852 -0.07200
C 	C 	0.07850 0.07672 0.13997 -0.01700
H 	H 	0.95557 0.84222 0.15645 0.05400
H 	H 	0.03723 0.84200 0.15658 0.04000
H 	H 	0.15384 0.95908 0.14922 0.05000
H 	H 	0.15470 0.03773 0.14487 0.04300
N 	N 	0.99700 0.93710 0.15319 -0.29500
N 	N 	0.05826 0.99892 0.14723 -0.28500
N 	N 	0.99760 0.06124 0.14129 -0.28600
N 	N 	0.93627 0.99928 0.14726 -0.29600
H 	H 	0.03925 0.15599 0.13786 0.03900
H 	H 	0.95741 0.15625 0.13791 0.05200
H 	H 	0.84026 0.03827 0.14496 0.04300
H 	H 	0.84028 0.95942 0.14942 0.05100
C 	C 	0.96158 0.91031 0.15477 0.05900
C 	C 	0.97501 0.86948 0.15595 -0.09100
C 	C 	0.01813 0.86936 0.15601 0.00700
C 	C 	0.03209 0.91013 0.15484 0.06400
C 	C 	0.07705 0.92089 0.15455 -0.01800
C 	C 	0.08518 0.96478 0.15012 0.06300
C 	C 	0.12620 0.97769 0.14844 -0.07200
C 	C 	0.12661 0.01944 0.14588 -0.01400
C 	C 	0.08580 0.03278 0.14431 0.06600
C 	C 	0.91681 0.92129 0.15443 -0.01800
C 	C 	0.03334 0.08791 0.13965 0.06300
C 	C 	0.01976 0.12873 0.13846 0.00600
C 	C 	0.11803 0.72659 0.16798 -0.03900
C 	C 	0.15936 0.71474 0.16842 0.05200
C 	C 	0.16835 0.67107 0.16777 -0.01300
C 	C 	0.21396 0.66159 0.17098 0.04400
C 	C 	0.22894 0.62129 0.17222 -0.03800
Ni	Ni	0.24668 0.75179 0.17358 0.95300
C 	C 	0.28506 0.66389 0.17603 0.04400
C 	C 	0.27217 0.62269 0.17467 -0.03800
C 	C 	0.16349 0.82692 0.16758 -0.01300
H 	H 	0.40523 0.71895 0.08020 0.04600
H 	H 	0.40219 0.79891 0.08016 0.05100
H 	H 	0.28048 0.91034 0.17567 0.04000
H 	H 	0.19942 0.90689 0.17158 0.04500
N 	N 	0.30822 0.75462 0.17798 -0.27800
N 	N 	0.24384 0.81354 0.17343 -0.27500
N 	N 	0.18558 0.74962 0.16936 -0.28200
N 	N 	0.24879 0.68956 0.17356 -0.27100
H 	H 	0.08838 0.78599 0.16767 0.04900
H 	H 	0.09065 0.70729 0.16792 0.04900
H 	H 	0.21039 0.59334 0.17125 0.04500
H 	H 	0.29211 0.59594 0.17553 0.04600
C 	C 	0.33657 0.72119 0.17908 0.04700
C 	C 	0.37687 0.73661 0.17985 -0.03800
C 	C 	0.37533 0.77903 0.17993 -0.04000
C 	C 	0.33409 0.79057 0.17928 0.05000
C 	C 	0.32285 0.83459 0.17947 -0.01300
C 	C 	0.27763 0.84183 0.17593 0.04600
C 	C 	0.26239 0.88209 0.17464 -0.03800
C 	C 	0.21961 0.88040 0.17224 -0.04100
C 	C 	0.20774 0.83915 0.17086 0.04900
C 	C 	0.33017 0.67601 0.17937 -0.01100
C 	C 	0.15717 0.78273 0.16828 0.05300
C 	C 	0.11672 0.76832 0.16788 -0.04000
C 	C 	0.48541 0.86564 0.19023 -0.03800
C 	C 	0.47015 0.90588 0.19124 0.04600
C 	C 	0.42487 0.91310 0.19117 -0.01400
C 	C 	0.41362 0.95704 0.19502 0.05700
C 	C 	0.37237 0.96853 0.19654 -0.07100
Ni	Ni	0.50115 0.99573 0.09799 0.94900
C 	C 	0.41116 0.02631 0.20062 0.05700
C 	C 	0.37084 0.01092 0.19915 -0.01100
C 	C 	0.58444 0.92073 0.09105 -0.01400
H 	H 	0.45577 0.15139 0.20680 0.04600
H 	H 	0.53751 0.15395 0.10698 0.04500
H 	H 	0.65731 0.04024 0.09982 0.04200
H 	H 	0.65958 0.96153 0.09552 0.05100
N 	N 	0.49906 0.05781 0.20360 -0.26600
N 	N 	0.56235 0.99788 0.09798 -0.29300
N 	N 	0.50398 0.93414 0.09252 -0.27500
N 	N 	0.43951 0.99293 0.19786 -0.28900
H 	H 	0.54835 0.84085 0.08977 0.04700
H 	H 	0.46732 0.83740 0.18978 0.04200
H 	H 	0.34550 0.94862 0.19573 0.05500
H 	H 	0.34247 0.02857 0.20027 0.04200
C 	C 	0.46276 0.08347 0.20506 0.04700
C 	C 	0.47570 0.12465 0.20626 -0.03900
C 	C 	0.51894 0.12602 0.10636 -0.03900
C 	C 	0.53393 0.08573 0.10523 0.04600
C 	C 	0.57958 0.07627 0.10496 -0.01500
C 	C 	0.58859 0.03270 0.10071 0.06200
C 	C 	0.62994 0.02091 0.09906 -0.01100
C 	C 	0.63125 0.97920 0.09657 -0.07200
C 	C 	0.59077 0.96483 0.09514 0.06000
C 	C 	0.41758 0.07140 0.20470 -0.01300
C 	C 	0.54013 0.90855 0.09099 0.05000
C 	C 	0.52819 0.86732 0.09012 -0.04000
C 	C 	0.12004 0.22693 0.12719 -0.03900
C 	C 	0.16086 0.21361 0.12677 0.05100
C 	C 	0.16811 0.16955 0.12738 -0.01300
C 	C 	0.21315 0.15815 0.12425 0.04400
C 	C 	0.22636 0.11721 0.12295 -0.03700
Ni	Ni	0.24947 0.24711 0.12182 0.95300
C 	C 	0.28415 0.15730 0.11931 0.04500
C 	C 	0.26958 0.11669 0.12055 -0.03800
C 	C 	0.16904 0.32590 0.12760 -0.01200
H 	H 	0.40616 0.20685 0.11584 0.04500
H 	H 	0.40659 0.28630 0.11587 0.04500
H 	H 	0.29113 0.40455 0.11990 0.04600
H 	H 	0.20940 0.40471 0.12412 0.04500
N 	N 	0.31061 0.24668 0.11774 -0.28100
N 	N 	0.24972 0.30956 0.12192 -0.27000
N 	N 	0.18839 0.24757 0.12584 -0.28200
N 	N 	0.24903 0.18465 0.12178 -0.27000
H 	H 	0.09252 0.28717 0.12743 0.04900
H 	H 	0.09197 0.20860 0.12732 0.04900
H 	H 	0.20664 0.09010 0.12377 0.04600
H 	H 	0.28841 0.08910 0.11957 0.04800
C 	C 	0.33760 0.21212 0.11666 0.04900
C 	C 	0.37850 0.22552 0.11613 -0.03900
C 	C 	0.37872 0.26764 0.11615 -0.03900
C 	C 	0.33795 0.28107 0.11672 0.04900
C 	C 	0.33041 0.32561 0.11626 -0.01200
C 	C 	0.28530 0.33641 0.11947 0.04500
C 	C 	0.27170 0.37723 0.12078 -0.03800
C 	C 	0.22850 0.37733 0.12320 -0.03800
C 	C 	0.21439 0.33659 0.12445 0.04500
C 	C 	0.32970 0.16747 0.11614 -0.01100
C 	C 	0.16129 0.28177 0.12687 0.05200
C 	C 	0.12031 0.26867 0.12724 -0.04000
C 	C 	0.61870 0.22845 0.11738 -0.03900
C 	C 	0.65956 0.21531 0.11781 0.05100
C 	C 	0.66708 0.17122 0.11722 -0.01300
C 	C 	0.71217 0.16022 0.12028 0.04500
C 	C 	0.72579 0.11942 0.12158 -0.03800
Ni	Ni	0.74797 0.24934 0.12259 0.95400
C 	C 	0.78311 0.16010 0.12506 0.04500
C 	C 	0.76901 0.11934 0.12389 -0.03800
C 	C 	0.66747 0.32778 0.11707 -0.01200
H 	H 	0.90492 0.20982 0.12794 0.04300
H 	H 	0.90531 0.28840 0.12790 0.04300
H 	H 	0.78982 0.40653 0.12456 0.04500
H 	H 	0.70800 0.40676 0.12049 0.04500
N 	N 	0.80900 0.24918 0.12643 -0.28300
N 	N 	0.74822 0.31168 0.12255 -0.27000
N 	N 	0.68692 0.24947 0.11874 -0.28200
N 	N 	0.74777 0.18703 0.12265 -0.27100
H 	H 	0.59099 0.28871 0.21715 0.04600
H 	H 	0.59076 0.20991 0.21719 0.04600
H 	H 	0.70638 0.09212 0.12088 0.04700
H 	H 	0.78812 0.09198 0.12480 0.04700
C 	C 	0.83613 0.21507 0.12739 0.05200
C 	C 	0.87709 0.22825 0.12777 -0.04000
C 	C 	0.87728 0.27001 0.12775 -0.04000
C 	C 	0.83643 0.28323 0.12736 0.05200
C 	C 	0.82907 0.32728 0.12801 -0.01300
C 	C 	0.78392 0.33842 0.12496 0.04500
C 	C 	0.77033 0.37924 0.12372 -0.03800
C 	C 	0.72707 0.37937 0.12136 -0.03800
C 	C 	0.71286 0.33862 0.12013 0.04500
C 	C 	0.82839 0.17097 0.12805 -0.01200
C 	C 	0.65976 0.28359 0.11774 0.05200
C 	C 	0.61884 0.27029 0.21735 -0.04000
C 	C 	0.62141 0.72802 0.17781 -0.04000
C 	C 	0.66220 0.71463 0.17747 0.05200
C 	C 	0.66947 0.67059 0.17812 -0.01300
C 	C 	0.71457 0.65936 0.17506 0.04500
C 	C 	0.72813 0.61853 0.17380 -0.03800
Ni	Ni	0.75061 0.74832 0.17268 0.95500
C 	C 	0.78561 0.65913 0.17020 0.04500
C 	C 	0.77140 0.61839 0.17144 -0.03800
C 	C 	0.67094 0.82675 0.17837 -0.01300
H 	H 	0.90750 0.70918 0.16720 0.04300
H 	H 	0.90749 0.78802 0.16724 0.04200
H 	H 	0.79235 0.90550 0.17083 0.04400
H 	H 	0.71069 0.90571 0.17497 0.04500
N 	N 	0.81153 0.74820 0.16876 -0.28300
N 	N 	0.75090 0.81056 0.17274 -0.27200
N 	N 	0.68972 0.74855 0.17658 -0.28300
N 	N 	0.75028 0.68606 0.17264 -0.27100
H 	H 	0.59418 0.78835 0.17784 0.04500
H 	H 	0.59331 0.70975 0.17787 0.04600
H 	H 	0.70863 0.59125 0.17464 0.04500
H 	H 	0.79046 0.59099 0.17056 0.04500
C 	C 	0.83870 0.71417 0.16778 0.05200
C 	C 	0.87962 0.72755 0.16737 -0.04000
C 	C 	0.87964 0.76937 0.16737 -0.04000
C 	C 	0.83876 0.78237 0.16777 0.05200
C 	C 	0.83099 0.82634 0.16711 -0.01400
C 	C 	0.78628 0.83737 0.17027 0.04700
C 	C 	0.77289 0.87822 0.17161 -0.03900
C 	C 	0.72979 0.87834 0.17403 -0.03900
C 	C 	0.71585 0.83756 0.17527 0.04700
C 	C 	0.83094 0.67004 0.16714 -0.01200
C 	C 	0.66282 0.78277 0.17758 0.05200
C 	C 	0.62183 0.76979 0.17785 -0.04000
C 	C 	0.47606 0.37049 0.10615 -0.03800
C 	C 	0.46244 0.41129 0.10494 0.04500
C 	C 	0.41727 0.42206 0.10459 -0.01200
C 	C 	0.40972 0.46651 0.10047 0.04900
C 	C 	0.36896 0.47992 0.19897 -0.03900
Ni	Ni	0.49832 0.50040 0.09769 0.95300
C 	C 	0.41011 0.53536 0.19492 0.04900
C 	C 	0.36919 0.52202 0.19643 -0.03900
C 	C 	0.57883 0.42175 0.10481 -0.01200
H 	H 	0.45941 0.65822 0.18858 0.04600
H 	H 	0.54120 0.65720 0.18855 0.04500
H 	H 	0.65597 0.53891 0.19555 0.04600
H 	H 	0.65538 0.46032 0.09998 0.04700
N 	N 	0.49880 0.56271 0.19194 -0.27000
N 	N 	0.55949 0.49992 0.09770 -0.28200
N 	N 	0.49806 0.43811 0.10344 -0.27100
N 	N 	0.43711 0.50086 0.19769 -0.28000
H 	H 	0.53837 0.34301 0.10683 0.04500
H 	H 	0.45662 0.34318 0.10671 0.04600
H 	H 	0.34107 0.46125 0.09996 0.04500
H 	H 	0.34154 0.54071 0.19546 0.04500
C 	C 	0.46364 0.59005 0.19042 0.04500
C 	C 	0.47824 0.63064 0.18920 -0.03800
C 	C 	0.52148 0.63010 0.18914 -0.03800
C 	C 	0.53472 0.58918 0.19030 0.04400
C 	C 	0.57981 0.57780 0.19058 -0.01300
C 	C 	0.58706 0.53384 0.19487 0.05200
C 	C 	0.62787 0.52055 0.09647 -0.03900
C 	C 	0.62759 0.47883 0.09900 -0.03900
C 	C 	0.58660 0.46578 0.10055 0.05200
C 	C 	0.41804 0.57993 0.19079 -0.01100
C 	C 	0.53343 0.41110 0.10507 0.04500
C 	C 	0.51928 0.37038 0.10622 -0.03800
C 	C 	0.97880 0.62791 0.15640 -0.08400
C 	C 	0.96468 0.58718 0.15520 0.03000
C 	C 	0.91936 0.57635 0.15482 -0.00900
C 	C 	0.91160 0.53235 0.15048 0.04800
C 	C 	0.87062 0.51923 0.14889 -0.03800
Ni	Ni	0.99985 0.49814 0.14759 0.93800
C 	C 	0.91129 0.46432 0.14472 0.05300
C 	C 	0.87042 0.47749 0.14633 -0.04100
C 	C 	0.08084 0.57611 0.15494 -0.00900
H 	H 	0.95799 0.34119 0.13813 0.05200
H 	H 	0.03983 0.34096 0.13807 0.03900
H 	H 	0.15695 0.45878 0.14530 0.04700
H 	H 	0.15719 0.53758 0.14999 0.04600
N 	N 	0.99960 0.43599 0.14157 -0.29200
N 	N 	0.06099 0.49802 0.14760 -0.27300
N 	N 	0.00006 0.56028 0.15360 -0.24300
N 	N 	0.93874 0.49830 0.14759 -0.28400
H 	H 	0.04143 0.65512 0.15693 0.03700
H 	H 	0.95969 0.65527 0.15696 0.05100
H 	H 	0.84280 0.53768 0.14987 0.04600
H 	H 	0.84239 0.45909 0.14537 0.04700
C 	C 	0.96386 0.40927 0.13996 0.05600
C 	C 	0.97747 0.36847 0.13872 -0.08800
C 	C 	0.02075 0.36835 0.13868 0.00700
C 	C 	0.03500 0.40907 0.13990 0.06100
C 	C 	0.08043 0.41986 0.14024 -0.01500
C 	C 	0.08816 0.46396 0.14466 0.05600
C 	C 	0.12912 0.47722 0.14629 -0.04200
C 	C 	0.12925 0.51902 0.14895 -0.03900
C 	C 	0.08837 0.53211 0.15055 0.05100
C 	C 	0.91866 0.42037 0.14037 -0.01600
C 	C 	0.03570 0.58706 0.15524 0.03400
C 	C 	0.02203 0.62783 0.15641 0.01300
N 	N 	0.11935 0.10355 0.13605 -0.06100
N 	N 	0.12726 0.14268 0.13076 -0.06000
N 	N 	0.11681 0.89320 0.15875 -0.06000
N 	N 	0.12316 0.85385 0.16386 -0.06000
N 	N 	0.39401 0.87517 0.18727 -0.06000
N 	N 	0.35366 0.87257 0.18338 -0.06100
N 	N 	0.36979 0.13882 0.11270 -0.06000
N 	N 	0.37684 0.09907 0.10844 -0.06000
N 	N 	0.87693 0.89354 0.15845 -0.05900
N 	N 	0.87085 0.85416 0.16356 -0.06000
N 	N 	0.87631 0.10444 0.13634 -0.05900
N 	N 	0.86888 0.14370 0.13136 -0.06000
N 	N 	0.62658 0.14376 0.11392 -0.06000
N 	N 	0.61956 0.10443 0.10883 -0.06000
N 	N 	0.62482 0.89387 0.18706 -0.05900
N 	N 	0.63118 0.85451 0.18200 -0.06000
N 	N 	0.62070 0.60459 0.18672 -0.06000
N 	N 	0.62863 0.64371 0.18146 -0.06000
N 	N 	0.62690 0.35511 0.11369 -0.06000
N 	N 	0.61937 0.39441 0.10868 -0.06000
N 	N 	0.86990 0.35428 0.13132 -0.06000
N 	N 	0.87781 0.39344 0.13652 -0.05900
N 	N 	0.87144 0.64281 0.16377 -0.06000
N 	N 	0.87886 0.60356 0.15869 -0.06000
N 	N 	0.37711 0.39371 0.10840 -0.06000
N 	N 	0.37054 0.35402 0.11283 -0.06000
N 	N 	0.37088 0.64828 0.18281 -0.06000
N 	N 	0.37793 0.60852 0.18695 -0.06000
N 	N 	0.12839 0.64282 0.16430 -0.06000
N 	N 	0.12137 0.60351 0.15889 -0.06100
N 	N 	0.12853 0.35331 0.13109 -0.06000
N 	N 	0.12101 0.39260 0.13624 -0.06000
C 	C 	0.97648 0.12886 0.23849 -0.08900
C 	C 	0.96224 0.08814 0.23972 0.05900
C 	C 	0.91685 0.07727 0.24013 -0.01700
C 	C 	0.90909 0.03324 0.24441 0.06300
C 	C 	0.86814 0.01990 0.24597 -0.01100
Ni	Ni	0.99728 0.99916 0.24724 0.94000
C 	C 	0.90903 0.96516 0.25012 0.06000
C 	C 	0.86813 0.97809 0.24852 -0.07200
C 	C 	0.07851 0.07673 0.23997 -0.01700
H 	H 	0.95558 0.84221 0.25645 0.05400
H 	H 	0.03723 0.84200 0.25658 0.04000
H 	H 	0.15385 0.95907 0.24922 0.05000
H 	H 	0.15471 0.03773 0.24487 0.04300
N 	N 	0.99700 0.93710 0.25319 -0.29500
N 	N 	0.05827 0.99892 0.24723 -0.28500
N 	N 	0.99761 0.06124 0.24129 -0.28600
N 	N 	0.93627 0.99927 0.24726 -0.29600
H 	H 	0.03926 0.15599 0.23786 0.03900
H 	H 	0.95741 0.15625 0.23791 0.05200
H 	H 	0.84027 0.03827 0.24496 0.04200
H 	H 	0.84029 0.95942 0.24942 0.05100
C 	C 	0.96158 0.91030 0.25477 0.05900
C 	C 	0.97502 0.86948 0.25595 -0.09100
C 	C 	0.01813 0.86936 0.25601 0.00800
C 	C 	0.03210 0.91013 0.25484 0.06400
C 	C 	0.07705 0.92089 0.25455 -0.01800
C 	C 	0.08519 0.96478 0.25012 0.06400
C 	C 	0.12620 0.97769 0.24844 -0.07200
C 	C 	0.12661 0.01944 0.24588 -0.01400
C 	C 	0.08581 0.03278 0.24431 0.06600
C 	C 	0.91682 0.92128 0.25443 -0.01800
C 	C 	0.03335 0.08792 0.23965 0.06300
C 	C 	0.01976 0.12873 0.23846 0.00600
C 	C 	0.11802 0.72659 0.26798 -0.03900
C 	C 	0.15935 0.71473 0.26842 0.05200
C 	C 	0.16835 0.67107 0.26777 -0.01300
C 	C 	0.21396 0.66158 0.27097 0.04400
C 	C 	0.22893 0.62128 0.27222 -0.03800
Ni	Ni	0.24667 0.75178 0.27358 0.95300
C 	C 	0.28506 0.66388 0.27603 0.04400
C 	C 	0.27217 0.62268 0.27467 -0.03800
C 	C 	0.16349 0.82692 0.26758 -0.01300
H 	H 	0.40524 0.71897 0.18020 0.04500
H 	H 	0.40220 0.79892 0.18016 0.05100
H 	H 	0.28048 0.91033 0.27567 0.04000
H 	H 	0.19942 0.90688 0.27158 0.04500
N 	N 	0.30822 0.75461 0.27798 -0.27800
N 	N 	0.24384 0.81353 0.27343 -0.27500
N 	N 	0.18558 0.74962 0.26936 -0.28200
N 	N 	0.24879 0.68956 0.27356 -0.27100
H 	H 	0.08838 0.78599 0.26767 0.04900
H 	H 	0.09065 0.70729 0.26792 0.04900
H 	H 	0.21038 0.59333 0.27125 0.04500
H 	H 	0.29211 0.59593 0.27553 0.04600
C 	C 	0.33657 0.72118 0.27908 0.04700
C 	C 	0.37687 0.73660 0.27985 -0.03800
C 	C 	0.37532 0.77902 0.27993 -0.04000
C 	C 	0.33408 0.79056 0.27928 0.05000
C 	C 	0.32285 0.83458 0.27947 -0.01300
C 	C 	0.27763 0.84182 0.27593 0.04600
C 	C 	0.26239 0.88208 0.27464 -0.03800
C 	C 	0.21961 0.88040 0.27224 -0.04100
C 	C 	0.20774 0.83914 0.27086 0.04900
C 	C 	0.33017 0.67600 0.27937 -0.01100
C 	C 	0.15717 0.78272 0.26828 0.05300
C 	C 	0.11672 0.76832 0.26788 -0.04000
C 	C 	0.48540 0.86563 0.29022 -0.03800
C 	C 	0.47014 0.90587 0.29124 0.04600
C 	C 	0.42487 0.91309 0.29117 -0.01400
C 	C 	0.41362 0.95702 0.29502 0.05700
C 	C 	0.37237 0.96852 0.29654 -0.07000
Ni	Ni	0.50116 0.99575 0.19799 0.94800
C 	C 	0.41115 0.02629 0.30062 0.05700
C 	C 	0.37083 0.01091 0.29915 -0.01100
C 	C 	0.58445 0.92074 0.19105 -0.01500
H 	H 	0.45577 0.15138 0.30680 0.04600
H 	H 	0.53752 0.15397 0.20698 0.04500
H 	H 	0.65732 0.04026 0.19982 0.04200
H 	H 	0.65959 0.96154 0.19552 0.05100
N 	N 	0.49905 0.05779 0.30360 -0.26600
N 	N 	0.56236 0.99789 0.19798 -0.29400
N 	N 	0.50399 0.93415 0.19252 -0.27500
N 	N 	0.43951 0.99292 0.29786 -0.28900
H 	H 	0.54836 0.84086 0.18977 0.04700
H 	H 	0.46731 0.83738 0.28978 0.04200
H 	H 	0.34549 0.94861 0.29572 0.05500
H 	H 	0.34247 0.02855 0.30027 0.04200
C 	C 	0.46275 0.08345 0.30506 0.04700
C 	C 	0.47569 0.12463 0.30626 -0.03800
C 	C 	0.51895 0.12603 0.20636 -0.03900
C 	C 	0.53394 0.08575 0.20524 0.04600
C 	C 	0.57959 0.07629 0.20496 -0.01500
C 	C 	0.58860 0.03272 0.20071 0.06200
C 	C 	0.62995 0.02093 0.19906 -0.01100
C 	C 	0.63126 0.97922 0.19657 -0.07200
C 	C 	0.59078 0.96485 0.19514 0.06000
C 	C 	0.41758 0.07139 0.30470 -0.01300
C 	C 	0.54014 0.90856 0.19099 0.04900
C 	C 	0.52820 0.86734 0.19012 -0.04000
C 	C 	0.12006 0.22693 0.22719 -0.03900
C 	C 	0.16088 0.21362 0.22677 0.05100
C 	C 	0.16813 0.16956 0.22738 -0.01300
C 	C 	0.21317 0.15816 0.22425 0.04400
C 	C 	0.22638 0.11722 0.22295 -0.03700
Ni	Ni	0.24949 0.24712 0.22182 0.95300
C 	C 	0.28417 0.15731 0.21931 0.04500
C 	C 	0.26960 0.11670 0.22055 -0.03800
C 	C 	0.16906 0.32590 0.22759 -0.01200
H 	H 	0.40618 0.20686 0.21584 0.04500
H 	H 	0.40661 0.28631 0.21587 0.04500
H 	H 	0.29115 0.40457 0.21990 0.04600
H 	H 	0.20942 0.40472 0.22412 0.04500
N 	N 	0.31063 0.24669 0.21774 -0.28100
N 	N 	0.24974 0.30957 0.22192 -0.27000
N 	N 	0.18841 0.24758 0.22584 -0.28200
N 	N 	0.24905 0.18466 0.22178 -0.27000
H 	H 	0.09254 0.28717 0.22743 0.04900
H 	H 	0.09199 0.20860 0.22732 0.04900
H 	H 	0.20666 0.09011 0.22377 0.04600
H 	H 	0.28843 0.08911 0.21957 0.04800
C 	C 	0.33762 0.21214 0.21666 0.04900
C 	C 	0.37852 0.22553 0.21613 -0.03900
C 	C 	0.37874 0.26765 0.21615 -0.03900
C 	C 	0.33797 0.28108 0.21672 0.04900
C 	C 	0.33043 0.32562 0.21626 -0.01200
C 	C 	0.28532 0.33643 0.21947 0.04500
C 	C 	0.27172 0.37724 0.22078 -0.03800
C 	C 	0.22852 0.37734 0.22320 -0.03800
C 	C 	0.21441 0.33660 0.22445 0.04500
C 	C 	0.32971 0.16748 0.21614 -0.01100
C 	C 	0.16131 0.28178 0.22687 0.05200
C 	C 	0.12034 0.26868 0.22724 -0.03900
C 	C 	0.61871 0.22846 0.21738 -0.03900
C 	C 	0.65958 0.21533 0.21781 0.05100
C 	C 	0.66709 0.17124 0.21722 -0.01300
C 	C 	0.71219 0.16023 0.22029 0.04500
C 	C 	0.72580 0.11943 0.22158 -0.03800
Ni	Ni	0.74799 0.24935 0.22259 0.95400
C 	C 	0.78312 0.16011 0.22506 0.04500
C 	C 	0.76902 0.11935 0.22389 -0.03800
C 	C 	0.66749 0.32780 0.21707 -0.01200
H 	H 	0.90493 0.20982 0.22794 0.04300
H 	H 	0.90533 0.28840 0.22790 0.04300
H 	H 	0.78984 0.40654 0.22456 0.04500
H 	H 	0.70802 0.40677 0.22049 0.04500
N 	N 	0.80902 0.24919 0.22643 -0.28200
N 	N 	0.74824 0.31168 0.22255 -0.27000
N 	N 	0.68694 0.24948 0.21874 -0.28200
N 	N 	0.74778 0.18703 0.22265 -0.27100
H 	H 	0.59098 0.28869 0.31715 0.04600
H 	H 	0.59075 0.20989 0.31719 0.04600
H 	H 	0.70639 0.09213 0.22088 0.04700
H 	H 	0.78813 0.09198 0.22480 0.04700
C 	C 	0.83614 0.21507 0.22739 0.05200
C 	C 	0.87711 0.22825 0.22777 -0.04000
C 	C 	0.87730 0.27001 0.22775 -0.04000
C 	C 	0.83645 0.28323 0.22736 0.05200
C 	C 	0.82909 0.32728 0.22801 -0.01300
C 	C 	0.78394 0.33843 0.22497 0.04500
C 	C 	0.77036 0.37925 0.22372 -0.03800
C 	C 	0.72709 0.37938 0.22136 -0.03800
C 	C 	0.71288 0.33863 0.22013 0.04500
C 	C 	0.82840 0.17097 0.22805 -0.01200
C 	C 	0.65978 0.28360 0.21774 0.05200
C 	C 	0.61883 0.27027 0.31735 -0.04000
C 	C 	0.62141 0.72801 0.27781 -0.04000
C 	C 	0.66219 0.71461 0.27747 0.05200
C 	C 	0.66947 0.67058 0.27812 -0.01300
C 	C 	0.71457 0.65934 0.27506 0.04500
C 	C 	0.72813 0.61851 0.27380 -0.03800
Ni	Ni	0.75061 0.74830 0.27268 0.95500
C 	C 	0.78561 0.65912 0.27020 0.04500
C 	C 	0.77140 0.61837 0.27144 -0.03800
C 	C 	0.67093 0.82673 0.27837 -0.01300
H 	H 	0.90750 0.70917 0.26720 0.04300
H 	H 	0.90748 0.78801 0.26724 0.04200
H 	H 	0.79234 0.90548 0.27083 0.04400
H 	H 	0.71069 0.90570 0.27497 0.04400
N 	N 	0.81152 0.74818 0.26876 -0.28300
N 	N 	0.75090 0.81054 0.27274 -0.27200
N 	N 	0.68972 0.74854 0.27658 -0.28300
N 	N 	0.75028 0.68604 0.27264 -0.27100
H 	H 	0.59418 0.78834 0.27784 0.04500
H 	H 	0.59331 0.70973 0.27786 0.04600
H 	H 	0.70863 0.59123 0.27464 0.04500
H 	H 	0.79046 0.59098 0.27056 0.04500
C 	C 	0.83869 0.71415 0.26778 0.05200
C 	C 	0.87962 0.72754 0.26737 -0.04000
C 	C 	0.87964 0.76936 0.26737 -0.04000
C 	C 	0.83876 0.78236 0.26777 0.05200
C 	C 	0.83099 0.82633 0.26711 -0.01300
C 	C 	0.78628 0.83736 0.27027 0.04700
C 	C 	0.77289 0.87821 0.27162 -0.03900
C 	C 	0.72979 0.87833 0.27403 -0.03900
C 	C 	0.71584 0.83754 0.27527 0.04700
C 	C 	0.83094 0.67003 0.26714 -0.01200
C 	C 	0.66282 0.78275 0.27758 0.05200
C 	C 	0.62183 0.76977 0.27785 -0.04000
C 	C 	0.47609 0.37051 0.20615 -0.03800
C 	C 	0.46247 0.41130 0.20494 0.04500
C 	C 	0.41730 0.42207 0.20459 -0.01200
C 	C 	0.40975 0.46653 0.20047 0.04900
C 	C 	0.36895 0.47991 0.29897 -0.03900
Ni	Ni	0.49835 0.50042 0.19769 0.95300
C 	C 	0.41009 0.53535 0.29492 0.04900
C 	C 	0.36918 0.52201 0.29643 -0.03900
C 	C 	0.57886 0.42177 0.20481 -0.01200
H 	H 	0.45940 0.65821 0.28858 0.04600
H 	H 	0.54119 0.65718 0.28855 0.04500
H 	H 	0.65595 0.53889 0.29555 0.04600
H 	H 	0.65540 0.46034 0.19997 0.04600
N 	N 	0.49878 0.56269 0.29194 -0.27000
N 	N 	0.55952 0.49994 0.19770 -0.28200
N 	N 	0.49808 0.43813 0.20344 -0.27100
N 	N 	0.43710 0.50085 0.29769 -0.28000
H 	H 	0.53840 0.34303 0.20683 0.04500
H 	H 	0.45665 0.34319 0.20671 0.04600
H 	H 	0.34109 0.46126 0.19996 0.04500
H 	H 	0.34153 0.54070 0.29546 0.04500
C 	C 	0.46362 0.59003 0.29042 0.04500
C 	C 	0.47823 0.63062 0.28920 -0.03800
C 	C 	0.52147 0.63008 0.28914 -0.03800
C 	C 	0.53471 0.58916 0.29030 0.04400
C 	C 	0.57980 0.57779 0.29058 -0.01300
C 	C 	0.58705 0.53382 0.29487 0.05200
C 	C 	0.62790 0.52057 0.19647 -0.03900
C 	C 	0.62762 0.47884 0.19900 -0.04000
C 	C 	0.58662 0.46580 0.20055 0.05200
C 	C 	0.41803 0.57992 0.29079 -0.01100
C 	C 	0.53346 0.41112 0.20507 0.04500
C 	C 	0.51930 0.37040 0.20622 -0.03800
C 	C 	0.97881 0.62791 0.25640 -0.08400
C 	C 	0.96470 0.58717 0.25520 0.03000
C 	C 	0.91937 0.57635 0.25482 -0.00900
C 	C 	0.91161 0.53235 0.25048 0.04800
C 	C 	0.87064 0.51922 0.24889 -0.03800
Ni	Ni	0.99987 0.49814 0.24759 0.93800
C 	C 	0.91130 0.46432 0.24472 0.05300
C 	C 	0.87044 0.47749 0.24633 -0.04000
C 	C 	0.08085 0.57611 0.25494 -0.00900
H 	H 	0.95801 0.34119 0.23813 0.05200
H 	H 	0.03984 0.34096 0.23807 0.03900
H 	H 	0.15697 0.45879 0.24530 0.04700
H 	H 	0.15721 0.53759 0.24999 0.04600
N 	N 	0.99962 0.43599 0.24157 -0.29200
N 	N 	0.06101 0.49802 0.24760 -0.27300
N 	N 	0.00007 0.56028 0.25360 -0.24300
N 	N 	0.93875 0.49830 0.24759 -0.28400
H 	H 	0.04143 0.65512 0.25693 0.03700
H 	H 	0.95970 0.65527 0.25696 0.05100
H 	H 	0.84282 0.53767 0.24987 0.04600
H 	H 	0.84241 0.45908 0.24537 0.04700
C 	C 	0.96388 0.40927 0.23996 0.05600
C 	C 	0.97749 0.36847 0.23872 -0.08800
C 	C 	0.02077 0.36834 0.23868 0.00700
C 	C 	0.03502 0.40907 0.23990 0.06100
C 	C 	0.08045 0.41987 0.24024 -0.01500
C 	C 	0.08818 0.46396 0.24466 0.05600
C 	C 	0.12913 0.47722 0.24629 -0.04200
C 	C 	0.12926 0.51902 0.24895 -0.03900
C 	C 	0.08838 0.53211 0.25055 0.05100
C 	C 	0.91868 0.42037 0.24037 -0.01600
C 	C 	0.03571 0.58706 0.25524 0.03400
C 	C 	0.02204 0.62783 0.25641 0.01300
N 	N 	0.11936 0.10355 0.23605 -0.06100
N 	N 	0.12727 0.14268 0.23076 -0.06000
N 	N 	0.11682 0.89320 0.25875 -0.06000
N 	N 	0.12316 0.85385 0.26386 -0.06000
N 	N 	0.39401 0.87516 0.28727 -0.06000
N 	N 	0.35366 0.87256 0.28337 -0.06100
N 	N 	0.36981 0.13883 0.21270 -0.06000
N 	N 	0.37685 0.09908 0.20844 -0.06000
N 	N 	0.87693 0.89353 0.25845 -0.05900
N 	N 	0.87085 0.85415 0.26356 -0.06000
N 	N 	0.87632 0.10444 0.23634 -0.05900
N 	N 	0.86889 0.14370 0.23136 -0.06000
N 	N 	0.62660 0.14378 0.21392 -0.06000
N 	N 	0.61957 0.10445 0.20883 -0.06000
N 	N 	0.62481 0.89385 0.28706 -0.05900
N 	N 	0.63118 0.85450 0.28200 -0.06000
N 	N 	0.62069 0.60457 0.28672 -0.06000
N 	N 	0.62862 0.64370 0.28146 -0.06000
N 	N 	0.62693 0.35513 0.21369 -0.06000
N 	N 	0.61940 0.39443 0.20868 -0.06000
N 	N 	0.86992 0.35428 0.23132 -0.06000
N 	N 	0.87783 0.39344 0.23652 -0.05900
N 	N 	0.87145 0.64280 0.26377 -0.06000
N 	N 	0.87887 0.60355 0.25869 -0.06000
N 	N 	0.37714 0.39373 0.20840 -0.06000
N 	N 	0.37056 0.35403 0.21282 -0.06000
N 	N 	0.37088 0.64827 0.28281 -0.06000
N 	N 	0.37792 0.60851 0.28695 -0.06000
N 	N 	0.12840 0.64282 0.26430 -0.06000
N 	N 	0.12137 0.60351 0.25890 -0.06100
N 	N 	0.12855 0.35331 0.23109 -0.06000
N 	N 	0.12103 0.39260 0.23624 -0.06000
C 	C 	0.97647 0.12886 0.33849 -0.08900
C 	C 	0.96223 0.08814 0.33972 0.05900
C 	C 	0.91685 0.07727 0.34013 -0.01700
C 	C 	0.90908 0.03324 0.34441 0.06300
C 	C 	0.86814 0.01990 0.34597 -0.01100
Ni	Ni	0.99728 0.99916 0.34724 0.94000
C 	C 	0.90902 0.96516 0.35012 0.06000
C 	C 	0.86812 0.97809 0.34852 -0.07200
C 	C 	0.07850 0.07672 0.33997 -0.01700
H 	H 	0.95557 0.84221 0.35645 0.05400
H 	H 	0.03723 0.84200 0.35658 0.04000
H 	H 	0.15384 0.95907 0.34922 0.05000
H 	H 	0.15470 0.03773 0.34487 0.04300
N 	N 	0.99700 0.93710 0.35319 -0.29500
N 	N 	0.05826 0.99892 0.34723 -0.28500
N 	N 	0.99760 0.06124 0.34129 -0.28700
N 	N 	0.93627 0.99927 0.34726 -0.29600
H 	H 	0.03925 0.15599 0.33786 0.03900
H 	H 	0.95741 0.15625 0.33791 0.05200
H 	H 	0.84027 0.03827 0.34496 0.04200
H 	H 	0.84028 0.95942 0.34942 0.05100
C 	C 	0.96158 0.91030 0.35477 0.05900
C 	C 	0.97501 0.86948 0.35595 -0.09100
C 	C 	0.01813 0.86936 0.35601 0.00800
C 	C 	0.03209 0.91013 0.35484 0.06400
C 	C 	0.07704 0.92089 0.35455 -0.01800
C 	C 	0.08518 0.96478 0.35012 0.06400
C 	C 	0.12620 0.97768 0.34844 -0.07200
C 	C 	0.12661 0.01944 0.34588 -0.01400
C 	C 	0.08580 0.03278 0.34431 0.06600
C 	C 	0.91681 0.92128 0.35443 -0.01800
C 	C 	0.03334 0.08791 0.33965 0.06300
C 	C 	0.01976 0.12872 0.33846 0.00600
C 	C 	0.11802 0.72659 0.36798 -0.03900
C 	C 	0.15935 0.71474 0.36842 0.05200
C 	C 	0.16835 0.67107 0.36777 -0.01300
C 	C 	0.21396 0.66159 0.37097 0.04400
C 	C 	0.22893 0.62129 0.37222 -0.03800
Ni	Ni	0.24667 0.75178 0.37358 0.95300
C 	C 	0.28506 0.66389 0.37603 0.04400
C 	C 	0.27217 0.62269 0.37467 -0.03800
C 	C 	0.16349 0.82692 0.36758 -0.01300
H 	H 	0.40524 0.71896 0.28020 0.04500
H 	H 	0.40220 0.79891 0.28017 0.05000
H 	H 	0.28048 0.91034 0.37567 0.04000
H 	H 	0.19941 0.90688 0.37158 0.04500
N 	N 	0.30822 0.75461 0.37798 -0.27800
N 	N 	0.24384 0.81354 0.37343 -0.27400
N 	N 	0.18557 0.74962 0.36936 -0.28200
N 	N 	0.24879 0.68956 0.37356 -0.27100
H 	H 	0.08837 0.78599 0.36767 0.04900
H 	H 	0.09065 0.70729 0.36792 0.04900
H 	H 	0.21038 0.59334 0.37125 0.04500
H 	H 	0.29210 0.59594 0.37553 0.04600
C 	C 	0.33656 0.72118 0.37908 0.04700
C 	C 	0.37686 0.73661 0.37985 -0.03800
C 	C 	0.37532 0.77902 0.37993 -0.04000
C 	C 	0.33408 0.79057 0.37928 0.05000
C 	C 	0.32285 0.83458 0.37947 -0.01300
C 	C 	0.27763 0.84183 0.37593 0.04600
C 	C 	0.26239 0.88209 0.37464 -0.03800
C 	C 	0.21961 0.88040 0.37224 -0.04100
C 	C 	0.20773 0.83915 0.37086 0.04900
C 	C 	0.33017 0.67601 0.37937 -0.01100
C 	C 	0.15717 0.78273 0.36828 0.05300
C 	C 	0.11671 0.76832 0.36788 -0.04000
C 	C 	0.48540 0.86564 0.39023 -0.03800
C 	C 	0.47014 0.90588 0.39124 0.04600
C 	C 	0.42487 0.91310 0.39117 -0.01400
C 	C 	0.41362 0.95703 0.39502 0.05700
C 	C 	0.37236 0.96853 0.39654 -0.07100
Ni	Ni	0.50116 0.99573 0.29799 0.94800
C 	C 	0.41115 0.02630 0.40062 0.05700
C 	C 	0.37083 0.01092 0.39915 -0.01100
C 	C 	0.58444 0.92073 0.29105 -0.01500
H 	H 	0.45576 0.15139 0.40680 0.04600
H 	H 	0.53751 0.15395 0.30698 0.04500
H 	H 	0.65732 0.04024 0.29982 0.04200
H 	H 	0.65959 0.96153 0.29552 0.05100
N 	N 	0.49905 0.05780 0.40360 -0.26600
N 	N 	0.56236 0.99788 0.29798 -0.29400
N 	N 	0.50398 0.93414 0.29252 -0.27500
N 	N 	0.43950 0.99293 0.39786 -0.28900
H 	H 	0.54836 0.84085 0.28977 0.04700
H 	H 	0.46731 0.83739 0.38978 0.04200
H 	H 	0.34549 0.94862 0.39572 0.05500
H 	H 	0.34247 0.02856 0.40027 0.04200
C 	C 	0.46275 0.08346 0.40506 0.04700
C 	C 	0.47569 0.12464 0.40626 -0.03800
C 	C 	0.51895 0.12602 0.30636 -0.03900
C 	C 	0.53393 0.08573 0.30523 0.04600
C 	C 	0.57958 0.07627 0.30496 -0.01500
C 	C 	0.58860 0.03270 0.30071 0.06200
C 	C 	0.62995 0.02092 0.29906 -0.01100
C 	C 	0.63125 0.97920 0.29657 -0.07200
C 	C 	0.59078 0.96484 0.29514 0.06000
C 	C 	0.41758 0.07139 0.40470 -0.01300
C 	C 	0.54013 0.90855 0.29099 0.04900
C 	C 	0.52820 0.86732 0.29012 -0.04000
C 	C 	0.12005 0.22693 0.32719 -0.03900
C 	C 	0.16087 0.21361 0.32677 0.05100
C 	C 	0.16812 0.16955 0.32738 -0.01300
C 	C 	0.21316 0.15815 0.32425 0.04400
C 	C 	0.22637 0.11721 0.32295 -0.03700
Ni	Ni	0.24947 0.24711 0.32182 0.95300
C 	C 	0.28416 0.15730 0.31931 0.04500
C 	C 	0.26959 0.11669 0.32055 -0.03800
C 	C 	0.16905 0.32590 0.32760 -0.01200
H 	H 	0.40617 0.20685 0.31584 0.04500
H 	H 	0.40660 0.28630 0.31587 0.04500
H 	H 	0.29114 0.40456 0.31990 0.04600
H 	H 	0.20941 0.40471 0.32412 0.04500
N 	N 	0.31061 0.24668 0.31774 -0.28100
N 	N 	0.24973 0.30956 0.32192 -0.27000
N 	N 	0.18839 0.24757 0.32584 -0.28200
N 	N 	0.24903 0.18465 0.32178 -0.27000
H 	H 	0.09253 0.28717 0.32743 0.04900
H 	H 	0.09198 0.20860 0.32732 0.04900
H 	H 	0.20665 0.09010 0.32377 0.04600
H 	H 	0.28841 0.08910 0.31957 0.04800
C 	C 	0.33761 0.21212 0.31666 0.04900
C 	C 	0.37851 0.22552 0.31613 -0.03900
C 	C 	0.37873 0.26764 0.31615 -0.03900
C 	C 	0.33796 0.28107 0.31672 0.04900
C 	C 	0.33042 0.32561 0.31626 -0.01200
C 	C 	0.28530 0.33642 0.31947 0.04500
C 	C 	0.27170 0.37723 0.32078 -0.03800
C 	C 	0.22851 0.37733 0.32320 -0.03800
C 	C 	0.21440 0.33659 0.32445 0.04500
C 	C 	0.32970 0.16747 0.31614 -0.01100
C 	C 	0.16130 0.28177 0.32687 0.05200
C 	C 	0.12032 0.26867 0.32724 -0.04000
C 	C 	0.61870 0.22845 0.31738 -0.03900
C 	C 	0.65957 0.21531 0.31781 0.05100
C 	C 	0.66708 0.17122 0.31722 -0.01300
C 	C 	0.71218 0.16022 0.32029 0.04500
C 	C 	0.72580 0.11942 0.32158 -0.03800
Ni	Ni	0.74798 0.24934 0.32259 0.95400
C 	C 	0.78311 0.16010 0.32506 0.04500
C 	C 	0.76902 0.11934 0.32389 -0.03800
C 	C 	0.66748 0.32778 0.31707 -0.01200
H 	H 	0.90492 0.20982 0.32794 0.04300
H 	H 	0.90532 0.28840 0.32790 0.04300
H 	H 	0.78983 0.40653 0.32456 0.04500
H 	H 	0.70801 0.40676 0.32049 0.04500
N 	N 	0.80901 0.24918 0.32643 -0.28200
N 	N 	0.74822 0.31167 0.32255 -0.27000
N 	N 	0.68693 0.24947 0.31874 -0.28200
N 	N 	0.74777 0.18703 0.32265 -0.27100
H 	H 	0.59099 0.28871 0.41715 0.04600
H 	H 	0.59075 0.20991 0.41719 0.04600
H 	H 	0.70639 0.09212 0.32087 0.04700
H 	H 	0.78813 0.09198 0.32480 0.04700
C 	C 	0.83613 0.21507 0.32739 0.05200
C 	C 	0.87709 0.22825 0.32777 -0.04000
C 	C 	0.87729 0.27000 0.32775 -0.04000
C 	C 	0.83644 0.28323 0.32736 0.05200
C 	C 	0.82908 0.32728 0.32801 -0.01300
C 	C 	0.78393 0.33842 0.32496 0.04500
C 	C 	0.77034 0.37924 0.32372 -0.03800
C 	C 	0.72708 0.37936 0.32136 -0.03800
C 	C 	0.71286 0.33862 0.32013 0.04500
C 	C 	0.82839 0.17097 0.32805 -0.01200
C 	C 	0.65977 0.28359 0.31774 0.05200
C 	C 	0.61883 0.27028 0.41735 -0.04000
C 	C 	0.62141 0.72802 0.37781 -0.04000
C 	C 	0.66219 0.71462 0.37747 0.05200
C 	C 	0.66947 0.67059 0.37812 -0.01300
C 	C 	0.71457 0.65935 0.37506 0.04500
C 	C 	0.72812 0.61852 0.37380 -0.03800
Ni	Ni	0.75061 0.74831 0.37268 0.95500
C 	C 	0.78560 0.65913 0.37020 0.04500
C 	C 	0.77139 0.61838 0.37144 -0.03800
C 	C 	0.67093 0.82675 0.37837 -0.01300
H 	H 	0.90750 0.70918 0.36720 0.04300
H 	H 	0.90748 0.78801 0.36724 0.04200
H 	H 	0.79234 0.90549 0.37083 0.04400
H 	H 	0.71069 0.90571 0.37497 0.04400
N 	N 	0.81152 0.74819 0.36876 -0.28300
N 	N 	0.75089 0.81055 0.37274 -0.27200
N 	N 	0.68972 0.74855 0.37658 -0.28300
N 	N 	0.75028 0.68605 0.37264 -0.27100
H 	H 	0.59418 0.78835 0.37784 0.04500
H 	H 	0.59330 0.70974 0.37786 0.04600
H 	H 	0.70862 0.59124 0.37464 0.04500
H 	H 	0.79046 0.59099 0.37056 0.04500
C 	C 	0.83869 0.71416 0.36778 0.05200
C 	C 	0.87962 0.72754 0.36737 -0.04000
C 	C 	0.87964 0.76937 0.36737 -0.04000
C 	C 	0.83876 0.78237 0.36777 0.05200
C 	C 	0.83099 0.82634 0.36711 -0.01300
C 	C 	0.78627 0.83737 0.37027 0.04700
C 	C 	0.77289 0.87822 0.37161 -0.03900
C 	C 	0.72979 0.87834 0.37403 -0.03900
C 	C 	0.71584 0.83755 0.37527 0.04700
C 	C 	0.83093 0.67004 0.36714 -0.01200
C 	C 	0.66282 0.78276 0.37758 0.05200
C 	C 	0.62183 0.76978 0.37785 -0.04000
C 	C 	0.47607 0.37049 0.30615 -0.03800
C 	C 	0.46245 0.41129 0.30494 0.04500
C 	C 	0.41728 0.42206 0.30459 -0.01200
C 	C 	0.40973 0.46652 0.30047 0.04900
C 	C 	0.36895 0.47992 0.39897 -0.03900
Ni	Ni	0.49833 0.50040 0.29769 0.95300
C 	C 	0.41010 0.53536 0.39492 0.04900
C 	C 	0.36918 0.52201 0.39643 -0.03900
C 	C 	0.57884 0.42175 0.30481 -0.01200
H 	H 	0.45940 0.65822 0.38858 0.04600
H 	H 	0.54119 0.65719 0.38855 0.04500
H 	H 	0.65596 0.53890 0.39555 0.04600
H 	H 	0.65539 0.46032 0.29998 0.04600
N 	N 	0.49879 0.56271 0.39194 -0.27000
N 	N 	0.55950 0.49993 0.29770 -0.28200
N 	N 	0.49807 0.43812 0.30344 -0.27100
N 	N 	0.43710 0.50086 0.39769 -0.28000
H 	H 	0.53838 0.34301 0.30683 0.04500
H 	H 	0.45663 0.34318 0.30671 0.04600
H 	H 	0.34108 0.46125 0.29996 0.04500
H 	H 	0.34153 0.54071 0.39546 0.04500
C 	C 	0.46363 0.59004 0.39042 0.04500
C 	C 	0.47823 0.63063 0.38920 -0.03800
C 	C 	0.52147 0.63009 0.38914 -0.03800
C 	C 	0.53471 0.58917 0.39030 0.04400
C 	C 	0.57980 0.57780 0.39058 -0.01300
C 	C 	0.58705 0.53383 0.39487 0.05200
C 	C 	0.62788 0.52055 0.29647 -0.03900
C 	C 	0.62760 0.47883 0.29900 -0.04000
C 	C 	0.58661 0.46578 0.30055 0.05200
C 	C 	0.41803 0.57993 0.39079 -0.01100
C 	C 	0.53344 0.41111 0.30507 0.04500
C 	C 	0.51929 0.37038 0.30622 -0.03800
C 	C 	0.97880 0.62791 0.35640 -0.08400
C 	C 	0.96468 0.58718 0.35520 0.03000
C 	C 	0.91936 0.57635 0.35482 -0.00900
C 	C 	0.91160 0.53235 0.35048 0.04800
C 	C 	0.87062 0.51922 0.34889 -0.03800
Ni	Ni	0.99985 0.49814 0.34759 0.93800
C 	C 	0.91129 0.46432 0.34472 0.05300
C 	C 	0.87042 0.47749 0.34633 -0.04100
C 	C 	0.08084 0.57611 0.35494 -0.00900
H 	H 	0.95800 0.34119 0.33813 0.05200
H 	H 	0.03983 0.34096 0.33807 0.03900
H 	H 	0.15695 0.45878 0.34530 0.04700
H 	H 	0.15719 0.53758 0.34999 0.04600
N 	N 	0.99960 0.43599 0.34157 -0.29300
N 	N 	0.06099 0.49802 0.34760 -0.27300
N 	N 	0.00006 0.56028 0.35360 -0.24300
N 	N 	0.93874 0.49830 0.34759 -0.28400
H 	H 	0.04143 0.65512 0.35693 0.03700
H 	H 	0.95969 0.65527 0.35696 0.05100
H 	H 	0.84280 0.53767 0.34987 0.04600
H 	H 	0.84240 0.45908 0.34537 0.04700
C 	C 	0.96386 0.40927 0.33996 0.05600
C 	C 	0.97748 0.36847 0.33872 -0.08900
C 	C 	0.02076 0.36834 0.33868 0.00800
C 	C 	0.03500 0.40907 0.33990 0.06100
C 	C 	0.08043 0.41986 0.34024 -0.01500
C 	C 	0.08816 0.46396 0.34466 0.05600
C 	C 	0.12912 0.47722 0.34629 -0.04200
C 	C 	0.12925 0.51902 0.34895 -0.03900
C 	C 	0.08837 0.53211 0.35055 0.05100
C 	C 	0.91866 0.42037 0.34037 -0.01600
C 	C 	0.03569 0.58706 0.35524 0.03400
C 	C 	0.02203 0.62783 0.35641 0.01400
N 	N 	0.11935 0.10355 0.33605 -0.06000
N 	N 	0.12726 0.14268 0.33076 -0.06000
N 	N 	0.11681 0.89320 0.35875 -0.06000
N 	N 	0.12315 0.85385 0.36386 -0.06000
N 	N 	0.39400 0.87516 0.38727 -0.06000
N 	N 	0.35366 0.87257 0.38337 -0.06100
N 	N 	0.36980 0.13882 0.31270 -0.06000
N 	N 	0.37685 0.09907 0.30844 -0.06000
N 	N 	0.87693 0.89353 0.35845 -0.05900
N 	N 	0.87085 0.85415 0.36356 -0.06000
N 	N 	0.87631 0.10443 0.33634 -0.05900
N 	N 	0.86888 0.14370 0.33136 -0.06000
N 	N 	0.62659 0.14376 0.31392 -0.06000
N 	N 	0.61957 0.10444 0.30883 -0.06000
N 	N 	0.62481 0.89386 0.38706 -0.05900
N 	N 	0.63118 0.85451 0.38200 -0.06000
N 	N 	0.62069 0.60458 0.38672 -0.06000
N 	N 	0.62862 0.64371 0.38146 -0.06000
N 	N 	0.62691 0.35511 0.31369 -0.06000
N 	N 	0.61938 0.39441 0.30868 -0.06000
N 	N 	0.86990 0.35428 0.33132 -0.06000
N 	N 	0.87782 0.39344 0.33652 -0.05900
N 	N 	0.87144 0.64281 0.36377 -0.06000
N 	N 	0.87886 0.60355 0.35869 -0.06000
N 	N 	0.37712 0.39372 0.30840 -0.06000
N 	N 	0.37055 0.35402 0.31282 -0.06000
N 	N 	0.37087 0.64828 0.38281 -0.06000
N 	N 	0.37792 0.60852 0.38695 -0.06000
N 	N 	0.12839 0.64282 0.36430 -0.06000
N 	N 	0.12136 0.60351 0.35889 -0.06100
N 	N 	0.12853 0.35331 0.33109 -0.06000
N 	N 	0.12102 0.39260 0.33624 -0.06000
C 	C 	0.97647 0.12886 0.43849 -0.08900
C 	C 	0.96223 0.08814 0.43972 0.05900
C 	C 	0.91685 0.07727 0.44013 -0.01700
C 	C 	0.90908 0.03324 0.44441 0.06300
C 	C 	0.86814 0.01990 0.44597 -0.01100
Ni	Ni	0.99728 0.99916 0.44724 0.94000
C 	C 	0.90903 0.96516 0.45012 0.06000
C 	C 	0.86812 0.97809 0.44852 -0.07200
C 	C 	0.07850 0.07672 0.43997 -0.01700
H 	H 	0.95557 0.84222 0.45645 0.05400
H 	H 	0.03723 0.84200 0.45658 0.04000
H 	H 	0.15385 0.95907 0.44922 0.05000
H 	H 	0.15471 0.03773 0.44487 0.04300
N 	N 	0.99700 0.93710 0.45319 -0.29500
N 	N 	0.05827 0.99892 0.44723 -0.28500
N 	N 	0.99760 0.06124 0.44129 -0.28700
N 	N 	0.93627 0.99927 0.44726 -0.29600
H 	H 	0.03926 0.15599 0.43786 0.03900
H 	H 	0.95741 0.15625 0.43791 0.05200
H 	H 	0.84027 0.03827 0.44496 0.04200
H 	H 	0.84029 0.95942 0.44942 0.05100
C 	C 	0.96158 0.91030 0.45477 0.05900
C 	C 	0.97501 0.86948 0.45595 -0.09100
C 	C 	0.01813 0.86936 0.45601 0.00800
C 	C 	0.03209 0.91013 0.45484 0.06400
C 	C 	0.07705 0.92089 0.45455 -0.01800
C 	C 	0.08519 0.96478 0.45012 0.06400
C 	C 	0.12620 0.97769 0.44844 -0.07200
C 	C 	0.12661 0.01944 0.44588 -0.01400
C 	C 	0.08581 0.03278 0.44431 0.06600
C 	C 	0.91682 0.92128 0.45443 -0.01800
C 	C 	0.03335 0.08792 0.43965 0.06300
C 	C 	0.01976 0.12873 0.43846 0.00600
C 	C 	0.11803 0.72659 0.46798 -0.03900
C 	C 	0.15936 0.71474 0.46842 0.05200
C 	C 	0.16835 0.67107 0.46777 -0.01300
C 	C 	0.21396 0.66158 0.47098 0.04400
C 	C 	0.22893 0.62128 0.47222 -0.03800
Ni	Ni	0.24668 0.75178 0.47358 0.95300
C 	C 	0.28506 0.66389 0.47603 0.04400
C 	C 	0.27217 0.62268 0.47467 -0.03800
C 	C 	0.16349 0.82692 0.46758 -0.01300
H 	H 	0.40523 0.71896 0.38020 0.04500
H 	H 	0.40220 0.79892 0.38016 0.05000
H 	H 	0.28048 0.91034 0.47567 0.04000
H 	H 	0.19942 0.90688 0.47158 0.04500
N 	N 	0.30822 0.75461 0.47798 -0.27800
N 	N 	0.24384 0.81354 0.47343 -0.27400
N 	N 	0.18558 0.74962 0.46936 -0.28200
N 	N 	0.24879 0.68956 0.47356 -0.27100
H 	H 	0.08838 0.78599 0.46767 0.04900
H 	H 	0.09065 0.70729 0.46792 0.04900
H 	H 	0.21038 0.59334 0.47125 0.04500
H 	H 	0.29211 0.59594 0.47553 0.04600
C 	C 	0.33657 0.72118 0.47908 0.04700
C 	C 	0.37687 0.73661 0.47985 -0.03800
C 	C 	0.37533 0.77902 0.47993 -0.04000
C 	C 	0.33409 0.79057 0.47928 0.05000
C 	C 	0.32285 0.83458 0.47947 -0.01300
C 	C 	0.27763 0.84183 0.47593 0.04600
C 	C 	0.26239 0.88209 0.47464 -0.03800
C 	C 	0.21961 0.88040 0.47224 -0.04100
C 	C 	0.20774 0.83914 0.47086 0.04900
C 	C 	0.33017 0.67601 0.47937 -0.01100
C 	C 	0.15717 0.78273 0.46828 0.05300
C 	C 	0.11672 0.76832 0.46788 -0.04000
C 	C 	0.48541 0.86563 0.49022 -0.03800
C 	C 	0.47015 0.90587 0.49124 0.04600
C 	C 	0.42487 0.91309 0.49117 -0.01400
C 	C 	0.41362 0.95703 0.49502 0.05700
C 	C 	0.37237 0.96852 0.49654 -0.07100
Ni	Ni	0.50116 0.99574 0.39799 0.94800
C 	C 	0.41116 0.02630 0.50062 0.05700
C 	C 	0.37084 0.01092 0.49915 -0.01100
C 	C 	0.58444 0.92074 0.39105 -0.01500
H 	H 	0.45577 0.15138 0.50680 0.04600
H 	H 	0.53751 0.15396 0.40698 0.04500
H 	H 	0.65732 0.04025 0.39982 0.04200
H 	H 	0.65959 0.96154 0.39552 0.05100
N 	N 	0.49905 0.05780 0.50360 -0.26600
N 	N 	0.56236 0.99789 0.39798 -0.29400
N 	N 	0.50398 0.93415 0.39252 -0.27600
N 	N 	0.43951 0.99292 0.49786 -0.28900
H 	H 	0.54836 0.84086 0.38977 0.04700
H 	H 	0.46731 0.83739 0.48978 0.04200
H 	H 	0.34550 0.94861 0.49572 0.05500
H 	H 	0.34247 0.02856 0.50027 0.04200
C 	C 	0.46275 0.08346 0.50506 0.04700
C 	C 	0.47569 0.12464 0.50626 -0.03900
C 	C 	0.51895 0.12603 0.40636 -0.03900
C 	C 	0.53393 0.08574 0.40524 0.04600
C 	C 	0.57958 0.07628 0.40496 -0.01500
C 	C 	0.58860 0.03271 0.40071 0.06200
C 	C 	0.62995 0.02093 0.39906 -0.01100
C 	C 	0.63125 0.97921 0.39657 -0.07300
C 	C 	0.59078 0.96485 0.39514 0.06000
C 	C 	0.41758 0.07139 0.50470 -0.01300
C 	C 	0.54013 0.90856 0.39099 0.04900
C 	C 	0.52820 0.86733 0.39012 -0.04000
C 	C 	0.12006 0.22693 0.42719 -0.03900
C 	C 	0.16088 0.21361 0.42677 0.05100
C 	C 	0.16812 0.16955 0.42738 -0.01300
C 	C 	0.21316 0.15816 0.42425 0.04400
C 	C 	0.22637 0.11722 0.42295 -0.03700
Ni	Ni	0.24948 0.24712 0.42182 0.95300
C 	C 	0.28416 0.15731 0.41931 0.04500
C 	C 	0.26959 0.11670 0.42055 -0.03800
C 	C 	0.16905 0.32590 0.42759 -0.01200
H 	H 	0.40617 0.20685 0.41584 0.04500
H 	H 	0.40661 0.28631 0.41587 0.04500
H 	H 	0.29114 0.40456 0.41990 0.04600
H 	H 	0.20941 0.40471 0.42412 0.04500
N 	N 	0.31062 0.24669 0.41774 -0.28100
N 	N 	0.24974 0.30957 0.42192 -0.27000
N 	N 	0.18840 0.24758 0.42584 -0.28200
N 	N 	0.24904 0.18466 0.42178 -0.27000
H 	H 	0.09253 0.28717 0.42743 0.04900
H 	H 	0.09198 0.20860 0.42732 0.04900
H 	H 	0.20665 0.09010 0.42377 0.04600
H 	H 	0.28842 0.08911 0.41957 0.04800
C 	C 	0.33762 0.21213 0.41666 0.04900
C 	C 	0.37851 0.22553 0.41613 -0.03900
C 	C 	0.37874 0.26765 0.41615 -0.03900
C 	C 	0.33797 0.28108 0.41672 0.04900
C 	C 	0.33043 0.32562 0.41626 -0.01200
C 	C 	0.28531 0.33642 0.41947 0.04500
C 	C 	0.27171 0.37724 0.42078 -0.03800
C 	C 	0.22851 0.37734 0.42320 -0.03800
C 	C 	0.21440 0.33659 0.42445 0.04500
C 	C 	0.32971 0.16747 0.41614 -0.01100
C 	C 	0.16131 0.28178 0.42687 0.05200
C 	C 	0.12033 0.26868 0.42724 -0.04000
C 	C 	0.61871 0.22846 0.41738 -0.03900
C 	C 	0.65957 0.21532 0.41781 0.05100
C 	C 	0.66709 0.17124 0.41722 -0.01300
C 	C 	0.71218 0.16023 0.42029 0.04500
C 	C 	0.72580 0.11943 0.42158 -0.03800
Ni	Ni	0.74798 0.24935 0.42259 0.95400
C 	C 	0.78311 0.16011 0.42506 0.04500
C 	C 	0.76902 0.11935 0.42389 -0.03800
C 	C 	0.66749 0.32779 0.41707 -0.01200
H 	H 	0.90492 0.20982 0.42794 0.04300
H 	H 	0.90533 0.28840 0.42790 0.04300
H 	H 	0.78983 0.40654 0.42456 0.04500
H 	H 	0.70801 0.40677 0.42049 0.04500
N 	N 	0.80901 0.24919 0.42643 -0.28200
N 	N 	0.74823 0.31168 0.42255 -0.27000
N 	N 	0.68693 0.24948 0.41874 -0.28200
N 	N 	0.74778 0.18703 0.42265 -0.27100
H 	H 	0.59099 0.28870 0.51715 0.04600
H 	H 	0.59075 0.20990 0.51719 0.04600
H 	H 	0.70639 0.09213 0.42088 0.04700
H 	H 	0.78813 0.09198 0.42480 0.04700
C 	C 	0.83614 0.21507 0.42739 0.05200
C 	C 	0.87710 0.22826 0.42777 -0.04000
C 	C 	0.87729 0.27001 0.42775 -0.04000
C 	C 	0.83645 0.28323 0.42736 0.05200
C 	C 	0.82908 0.32728 0.42801 -0.01300
C 	C 	0.78393 0.33843 0.42496 0.04500
C 	C 	0.77035 0.37925 0.42372 -0.03800
C 	C 	0.72709 0.37937 0.42136 -0.03800
C 	C 	0.71287 0.33863 0.42013 0.04500
C 	C 	0.82839 0.17097 0.42805 -0.01200
C 	C 	0.65977 0.28360 0.41774 0.05200
C 	C 	0.61883 0.27028 0.51735 -0.04000
C 	C 	0.62141 0.72801 0.47781 -0.04000
C 	C 	0.66220 0.71462 0.47747 0.05200
C 	C 	0.66947 0.67058 0.47812 -0.01300
C 	C 	0.71458 0.65935 0.47506 0.04500
C 	C 	0.72813 0.61851 0.47380 -0.03800
Ni	Ni	0.75061 0.74831 0.47268 0.95500
C 	C 	0.78561 0.65912 0.47020 0.04500
C 	C 	0.77140 0.61838 0.47144 -0.03800
C 	C 	0.67094 0.82674 0.47837 -0.01300
H 	H 	0.90750 0.70918 0.46720 0.04300
H 	H 	0.90749 0.78801 0.46724 0.04200
H 	H 	0.79235 0.90549 0.47083 0.04400
H 	H 	0.71069 0.90570 0.47497 0.04400
N 	N 	0.81153 0.74819 0.46876 -0.28300
N 	N 	0.75090 0.81055 0.47274 -0.27200
N 	N 	0.68972 0.74854 0.47658 -0.28300
N 	N 	0.75028 0.68605 0.47264 -0.27100
H 	H 	0.59418 0.78834 0.47784 0.04500
H 	H 	0.59331 0.70974 0.47786 0.04600
H 	H 	0.70863 0.59124 0.47464 0.04500
H 	H 	0.79046 0.59098 0.47056 0.04500
C 	C 	0.83870 0.71416 0.46778 0.05200
C 	C 	0.87962 0.72754 0.46737 -0.04000
C 	C 	0.87964 0.76937 0.46737 -0.04000
C 	C 	0.83876 0.78237 0.46777 0.05200
C 	C 	0.83099 0.82633 0.46711 -0.01400
C 	C 	0.78628 0.83736 0.47027 0.04700
C 	C 	0.77289 0.87821 0.47161 -0.03900
C 	C 	0.72979 0.87833 0.47403 -0.03900
C 	C 	0.71585 0.83755 0.47527 0.04700
C 	C 	0.83094 0.67004 0.46714 -0.01200
C 	C 	0.66282 0.78275 0.47758 0.05200
C 	C 	0.62183 0.76977 0.47785 -0.04000
C 	C 	0.47608 0.37050 0.40615 -0.03800
C 	C 	0.46245 0.41130 0.40494 0.04500
C 	C 	0.41729 0.42207 0.40459 -0.01200
C 	C 	0.40973 0.46653 0.40047 0.04900
C 	C 	0.36895 0.47992 0.49897 -0.03900
Ni	Ni	0.49834 0.50041 0.39769 0.95300
C 	C 	0.41010 0.53535 0.49492 0.04900
C 	C 	0.36918 0.52201 0.49643 -0.03900
C 	C 	0.57885 0.42176 0.40481 -0.01200
H 	H 	0.45941 0.65821 0.48858 0.04600
H 	H 	0.54120 0.65719 0.48855 0.04500
H 	H 	0.65596 0.53889 0.49555 0.04600
H 	H 	0.65539 0.46033 0.39997 0.04600
N 	N 	0.49879 0.56270 0.49194 -0.27000
N 	N 	0.55951 0.49994 0.39770 -0.28200
N 	N 	0.49807 0.43813 0.40344 -0.27100
N 	N 	0.43710 0.50085 0.49769 -0.28000
H 	H 	0.53839 0.34302 0.40683 0.04500
H 	H 	0.45664 0.34319 0.40671 0.04600
H 	H 	0.34108 0.46126 0.39996 0.04500
H 	H 	0.34153 0.54070 0.49546 0.04500
C 	C 	0.46363 0.59003 0.49042 0.04500
C 	C 	0.47823 0.63063 0.48920 -0.03800
C 	C 	0.52148 0.63009 0.48914 -0.03800
C 	C 	0.53471 0.58917 0.49030 0.04400
C 	C 	0.57980 0.57779 0.49058 -0.01300
C 	C 	0.58705 0.53383 0.49487 0.05200
C 	C 	0.62788 0.52056 0.39647 -0.03900
C 	C 	0.62761 0.47884 0.39900 -0.04000
C 	C 	0.58661 0.46580 0.40055 0.05200
C 	C 	0.41803 0.57992 0.49079 -0.01100
C 	C 	0.53344 0.41112 0.40507 0.04500
C 	C 	0.51929 0.37039 0.40622 -0.03800
C 	C 	0.97881 0.62791 0.45640 -0.08500
C 	C 	0.96469 0.58718 0.45520 0.03000
C 	C 	0.91937 0.57635 0.45482 -0.00900
C 	C 	0.91161 0.53235 0.45048 0.04800
C 	C 	0.87063 0.51922 0.44889 -0.03800
Ni	Ni	0.99986 0.49814 0.44759 0.93800
C 	C 	0.91130 0.46432 0.44472 0.05300
C 	C 	0.87043 0.47749 0.44633 -0.04100
C 	C 	0.08085 0.57611 0.45494 -0.00900
H 	H 	0.95800 0.34119 0.43813 0.05200
H 	H 	0.03984 0.34096 0.43807 0.03900
H 	H 	0.15696 0.45878 0.44530 0.04700
H 	H 	0.15720 0.53758 0.44999 0.04600
N 	N 	0.99961 0.43599 0.44157 -0.29300
N 	N 	0.06100 0.49802 0.44760 -0.27300
N 	N 	0.00007 0.56028 0.45360 -0.24300
N 	N 	0.93875 0.49830 0.44759 -0.28400
H 	H 	0.04143 0.65512 0.45693 0.03700
H 	H 	0.95970 0.65527 0.45696 0.05100
H 	H 	0.84281 0.53767 0.44987 0.04600
H 	H 	0.84241 0.45908 0.44537 0.04700
C 	C 	0.96387 0.40927 0.43996 0.05600
C 	C 	0.97749 0.36847 0.43872 -0.08900
C 	C 	0.02077 0.36835 0.43868 0.00800
C 	C 	0.03501 0.40907 0.43990 0.06100
C 	C 	0.08044 0.41986 0.44024 -0.01500
C 	C 	0.08817 0.46396 0.44466 0.05600
C 	C 	0.12913 0.47722 0.44629 -0.04200
C 	C 	0.12926 0.51902 0.44895 -0.03900
C 	C 	0.08838 0.53211 0.45055 0.05100
C 	C 	0.91867 0.42037 0.44037 -0.01600
C 	C 	0.03570 0.58706 0.45524 0.03400
C 	C 	0.02204 0.62783 0.45641 0.01400
N 	N 	0.11936 0.10355 0.43605 -0.06000
N 	N 	0.12727 0.14268 0.43076 -0.06000
N 	N 	0.11682 0.89320 0.45875 -0.06000
N 	N 	0.12316 0.85385 0.46386 -0.06000
N 	N 	0.39401 0.87516 0.48727 -0.06000
N 	N 	0.35366 0.87256 0.48338 -0.06100
N 	N 	0.36980 0.13883 0.41270 -0.06000
N 	N 	0.37685 0.09908 0.40844 -0.06000
N 	N 	0.87693 0.89353 0.45845 -0.05900
N 	N 	0.87085 0.85415 0.46356 -0.06000
N 	N 	0.87631 0.10444 0.43634 -0.05900
N 	N 	0.86889 0.14370 0.43136 -0.06000
N 	N 	0.62659 0.14377 0.41392 -0.06000
N 	N 	0.61957 0.10445 0.40883 -0.06000
N 	N 	0.62481 0.89385 0.48706 -0.05900
N 	N 	0.63118 0.85450 0.48200 -0.06000
N 	N 	0.62069 0.60458 0.48672 -0.06000
N 	N 	0.62863 0.64370 0.48146 -0.06000
N 	N 	0.62692 0.35512 0.41369 -0.06000
N 	N 	0.61939 0.39442 0.40868 -0.06000
N 	N 	0.86991 0.35428 0.43132 -0.06000
N 	N 	0.87783 0.39344 0.43652 -0.05900
N 	N 	0.87145 0.64281 0.46377 -0.06000
N 	N 	0.87886 0.60355 0.45869 -0.06000
N 	N 	0.37713 0.39372 0.40840 -0.06000
N 	N 	0.37056 0.35403 0.41282 -0.06000
N 	N 	0.37088 0.64827 0.48281 -0.06000
N 	N 	0.37792 0.60851 0.48695 -0.06000
N 	N 	0.12840 0.64282 0.46430 -0.06000
N 	N 	0.12137 0.60351 0.45890 -0.06100
N 	N 	0.12854 0.35331 0.43109 -0.06000
N 	N 	0.12102 0.39260 0.43624 -0.06000
C 	C 	0.97647 0.12886 0.53849 -0.08900
C 	C 	0.96223 0.08814 0.53972 0.05900
C 	C 	0.91685 0.07727 0.54013 -0.01700
C 	C 	0.90908 0.03324 0.54441 0.06300
C 	C 	0.86814 0.01990 0.54597 -0.01100
Ni	Ni	0.99728 0.99916 0.54724 0.94000
C 	C 	0.90902 0.96516 0.55012 0.06000
C 	C 	0.86812 0.97809 0.54852 -0.07200
C 	C 	0.07850 0.07672 0.53997 -0.01700
H 	H 	0.95557 0.84221 0.55645 0.05400
H 	H 	0.03723 0.84200 0.55658 0.04000
H 	H 	0.15385 0.95907 0.54922 0.05000
H 	H 	0.15471 0.03773 0.54487 0.04300
N 	N 	0.99700 0.93710 0.55319 -0.29500
N 	N 	0.05827 0.99892 0.54723 -0.28500
N 	N 	0.99760 0.06124 0.54129 -0.28700
N 	N 	0.93627 0.99927 0.54726 -0.29600
H 	H 	0.03926 0.15599 0.53786 0.03900
H 	H 	0.95741 0.15625 0.53791 0.05200
H 	H 	0.84027 0.03827 0.54496 0.04200
H 	H 	0.84028 0.95942 0.54942 0.05100
C 	C 	0.96158 0.91030 0.55477 0.05900
C 	C 	0.97501 0.86948 0.55595 -0.09100
C 	C 	0.01813 0.86936 0.55601 0.00800
C 	C 	0.03209 0.91013 0.55484 0.06400
C 	C 	0.07705 0.92089 0.55455 -0.01800
C 	C 	0.08519 0.96478 0.55012 0.06400
C 	C 	0.12620 0.97768 0.54844 -0.07200
C 	C 	0.12661 0.01944 0.54588 -0.01400
C 	C 	0.08581 0.03278 0.54431 0.06600
C 	C 	0.91681 0.92128 0.55443 -0.01800
C 	C 	0.03335 0.08791 0.53965 0.06300
C 	C 	0.01976 0.12872 0.53846 0.00600
C 	C 	0.11802 0.72659 0.56798 -0.03900
C 	C 	0.15935 0.71474 0.56842 0.05200
C 	C 	0.16835 0.67107 0.56777 -0.01300
C 	C 	0.21396 0.66159 0.57097 0.04400
C 	C 	0.22893 0.62128 0.57222 -0.03800
Ni	Ni	0.24667 0.75178 0.57358 0.95300
C 	C 	0.28506 0.66389 0.57603 0.04400
C 	C 	0.27217 0.62269 0.57467 -0.03800
C 	C 	0.16349 0.82692 0.56758 -0.01300
H 	H 	0.40524 0.71896 0.48020 0.04500
H 	H 	0.40220 0.79891 0.48016 0.05000
H 	H 	0.28048 0.91034 0.57567 0.04000
H 	H 	0.19942 0.90688 0.57158 0.04500
N 	N 	0.30822 0.75461 0.57798 -0.27800
N 	N 	0.24384 0.81354 0.57343 -0.27400
N 	N 	0.18558 0.74962 0.56936 -0.28200
N 	N 	0.24879 0.68956 0.57356 -0.27100
H 	H 	0.08837 0.78599 0.56767 0.04900
H 	H 	0.09065 0.70729 0.56792 0.04900
H 	H 	0.21038 0.59334 0.57125 0.04500
H 	H 	0.29211 0.59594 0.57553 0.04600
C 	C 	0.33656 0.72118 0.57908 0.04700
C 	C 	0.37686 0.73661 0.57985 -0.03800
C 	C 	0.37532 0.77902 0.57993 -0.04000
C 	C 	0.33408 0.79057 0.57928 0.05000
C 	C 	0.32285 0.83458 0.57947 -0.01300
C 	C 	0.27763 0.84183 0.57593 0.04600
C 	C 	0.26239 0.88209 0.57464 -0.03800
C 	C 	0.21961 0.88040 0.57224 -0.04100
C 	C 	0.20773 0.83915 0.57086 0.04900
C 	C 	0.33017 0.67601 0.57937 -0.01100
C 	C 	0.15717 0.78273 0.56828 0.05300
C 	C 	0.11672 0.76832 0.56788 -0.04000
C 	C 	0.48540 0.86564 0.59022 -0.03800
C 	C 	0.47014 0.90588 0.59124 0.04600
C 	C 	0.42487 0.91310 0.59117 -0.01400
C 	C 	0.41362 0.95703 0.59502 0.05700
C 	C 	0.37237 0.96853 0.59654 -0.07100
Ni	Ni	0.50116 0.99574 0.49799 0.94800
C 	C 	0.41115 0.02630 0.60062 0.05700
C 	C 	0.37083 0.01092 0.59915 -0.01100
C 	C 	0.58445 0.92073 0.49105 -0.01500
H 	H 	0.45577 0.15139 0.60680 0.04600
H 	H 	0.53752 0.15396 0.50698 0.04500
H 	H 	0.65732 0.04025 0.49982 0.04200
H 	H 	0.65959 0.96153 0.49552 0.05100
N 	N 	0.49905 0.05780 0.60360 -0.26600
N 	N 	0.56236 0.99788 0.49798 -0.29400
N 	N 	0.50399 0.93414 0.49252 -0.27500
N 	N 	0.43951 0.99292 0.59786 -0.28900
H 	H 	0.54836 0.84085 0.48977 0.04700
H 	H 	0.46731 0.83739 0.58978 0.04200
H 	H 	0.34549 0.94862 0.59572 0.05500
H 	H 	0.34247 0.02856 0.60027 0.04200
C 	C 	0.46275 0.08346 0.60506 0.04700
C 	C 	0.47569 0.12464 0.60626 -0.03800
C 	C 	0.51895 0.12602 0.50636 -0.03900
C 	C 	0.53393 0.08574 0.50523 0.04600
C 	C 	0.57959 0.07628 0.50496 -0.01500
C 	C 	0.58860 0.03271 0.50071 0.06200
C 	C 	0.62995 0.02092 0.49906 -0.01100
C 	C 	0.63125 0.97921 0.49657 -0.07300
C 	C 	0.59078 0.96484 0.49514 0.06000
C 	C 	0.41758 0.07139 0.60470 -0.01300
C 	C 	0.54013 0.90855 0.49099 0.05000
C 	C 	0.52820 0.86732 0.49012 -0.04000
C 	C 	0.12005 0.22693 0.52719 -0.03900
C 	C 	0.16088 0.21361 0.52677 0.05100
C 	C 	0.16812 0.16955 0.52738 -0.01300
C 	C 	0.21316 0.15815 0.52425 0.04400
C 	C 	0.22637 0.11722 0.52295 -0.03700
Ni	Ni	0.24948 0.24711 0.52182 0.95300
C 	C 	0.28416 0.15731 0.51931 0.04500
C 	C 	0.26959 0.11669 0.52055 -0.03800
C 	C 	0.16905 0.32590 0.52759 -0.01200
H 	H 	0.40617 0.20685 0.51584 0.04500
H 	H 	0.40661 0.28630 0.51587 0.04500
H 	H 	0.29114 0.40456 0.51990 0.04600
H 	H 	0.20941 0.40471 0.52412 0.04500
N 	N 	0.31062 0.24668 0.51774 -0.28100
N 	N 	0.24974 0.30956 0.52192 -0.27000
N 	N 	0.18840 0.24758 0.52584 -0.28200
N 	N 	0.24904 0.18466 0.52178 -0.27000
H 	H 	0.09253 0.28717 0.52743 0.04900
H 	H 	0.09198 0.20860 0.52732 0.04900
H 	H 	0.20665 0.09010 0.52377 0.04600
H 	H 	0.28842 0.08911 0.51957 0.04800
C 	C 	0.33762 0.21213 0.51666 0.04900
C 	C 	0.37851 0.22553 0.51613 -0.03900
C 	C 	0.37874 0.26764 0.51615 -0.03900
C 	C 	0.33797 0.28108 0.51672 0.04900
C 	C 	0.33043 0.32561 0.51626 -0.01200
C 	C 	0.28531 0.33642 0.51947 0.04500
C 	C 	0.27171 0.37724 0.52078 -0.03800
C 	C 	0.22852 0.37734 0.52320 -0.03800
C 	C 	0.21440 0.33659 0.52445 0.04500
C 	C 	0.32971 0.16747 0.51614 -0.01100
C 	C 	0.16131 0.28177 0.52687 0.05200
C 	C 	0.12033 0.26867 0.52724 -0.04000
C 	C 	0.61871 0.22845 0.51738 -0.03900
C 	C 	0.65957 0.21532 0.51781 0.05100
C 	C 	0.66709 0.17123 0.51722 -0.01300
C 	C 	0.71218 0.16022 0.52029 0.04500
C 	C 	0.72580 0.11942 0.52158 -0.03800
Ni	Ni	0.74798 0.24935 0.52259 0.95400
C 	C 	0.78312 0.16010 0.52506 0.04500
C 	C 	0.76902 0.11934 0.52389 -0.03800
C 	C 	0.66748 0.32779 0.51707 -0.01200
H 	H 	0.90493 0.20982 0.52794 0.04300
H 	H 	0.90533 0.28840 0.52790 0.04300
H 	H 	0.78983 0.40653 0.52456 0.04500
H 	H 	0.70801 0.40676 0.52049 0.04500
N 	N 	0.80901 0.24918 0.52643 -0.28200
N 	N 	0.74823 0.31168 0.52255 -0.27000
N 	N 	0.68693 0.24947 0.51874 -0.28200
N 	N 	0.74778 0.18703 0.52265 -0.27100
H 	H 	0.59099 0.28870 0.61715 0.04600
H 	H 	0.59075 0.20990 0.61719 0.04600
H 	H 	0.70639 0.09212 0.52088 0.04700
H 	H 	0.78813 0.09198 0.52480 0.04700
C 	C 	0.83614 0.21507 0.52739 0.05200
C 	C 	0.87710 0.22825 0.52777 -0.04000
C 	C 	0.87729 0.27000 0.52775 -0.04000
C 	C 	0.83645 0.28323 0.52736 0.05200
C 	C 	0.82908 0.32728 0.52801 -0.01300
C 	C 	0.78393 0.33842 0.52496 0.04500
C 	C 	0.77035 0.37924 0.52372 -0.03800
C 	C 	0.72708 0.37937 0.52136 -0.03800
C 	C 	0.71287 0.33862 0.52013 0.04500
C 	C 	0.82839 0.17097 0.52805 -0.01200
C 	C 	0.65977 0.28359 0.51774 0.05200
C 	C 	0.61883 0.27028 0.61735 -0.04000
C 	C 	0.62141 0.72802 0.57781 -0.04000
C 	C 	0.66219 0.71462 0.57747 0.05200
C 	C 	0.66947 0.67059 0.57812 -0.01300
C 	C 	0.71457 0.65935 0.57506 0.04500
C 	C 	0.72812 0.61852 0.57380 -0.03800
Ni	Ni	0.75061 0.74831 0.57268 0.95500
C 	C 	0.78560 0.65913 0.57020 0.04500
C 	C 	0.77139 0.61838 0.57144 -0.03800
C 	C 	0.67093 0.82674 0.57837 -0.01300
H 	H 	0.90750 0.70918 0.56720 0.04300
H 	H 	0.90748 0.78801 0.56724 0.04200
H 	H 	0.79234 0.90549 0.57083 0.04400
H 	H 	0.71069 0.90571 0.57497 0.04400
N 	N 	0.81152 0.74819 0.56876 -0.28300
N 	N 	0.75090 0.81055 0.57274 -0.27200
N 	N 	0.68972 0.74855 0.57658 -0.28300
N 	N 	0.75028 0.68605 0.57264 -0.27100
H 	H 	0.59418 0.78835 0.57784 0.04500
H 	H 	0.59331 0.70974 0.57786 0.04600
H 	H 	0.70863 0.59124 0.57464 0.04500
H 	H 	0.79046 0.59098 0.57056 0.04500
C 	C 	0.83869 0.71416 0.56778 0.05200
C 	C 	0.87962 0.72754 0.56737 -0.04000
C 	C 	0.87964 0.76937 0.56737 -0.04000
C 	C 	0.83876 0.78237 0.56777 0.05200
C 	C 	0.83099 0.82634 0.56711 -0.01300
C 	C 	0.78628 0.83737 0.57027 0.04700
C 	C 	0.77289 0.87822 0.57161 -0.03900
C 	C 	0.72979 0.87834 0.57403 -0.03900
C 	C 	0.71584 0.83755 0.57527 0.04700
C 	C 	0.83094 0.67004 0.56714 -0.01200
C 	C 	0.66282 0.78276 0.57758 0.05200
C 	C 	0.62183 0.76978 0.57785 -0.04000
C 	C 	0.47608 0.37050 0.50615 -0.03800
C 	C 	0.46246 0.41129 0.50494 0.04500
C 	C 	0.41729 0.42207 0.50459 -0.01200
C 	C 	0.40974 0.46652 0.50047 0.04900
C 	C 	0.36895 0.47992 0.59897 -0.03900
Ni	Ni	0.49834 0.50040 0.49769 0.95300
C 	C 	0.41010 0.53536 0.59492 0.04900
C 	C 	0.36918 0.52201 0.59643 -0.03900
C 	C 	0.57885 0.42176 0.50481 -0.01200
H 	H 	0.45940 0.65822 0.58858 0.04600
H 	H 	0.54119 0.65719 0.58855 0.04500
H 	H 	0.65596 0.53890 0.59555 0.04600
H 	H 	0.65539 0.46033 0.49998 0.04600
N 	N 	0.49879 0.56270 0.59194 -0.27000
N 	N 	0.55951 0.49993 0.49770 -0.28200
N 	N 	0.49807 0.43812 0.50344 -0.27100
N 	N 	0.43710 0.50085 0.59769 -0.28000
H 	H 	0.53839 0.34302 0.50683 0.04500
H 	H 	0.45664 0.34318 0.50671 0.04600
H 	H 	0.34108 0.46125 0.49996 0.04500
H 	H 	0.34153 0.54071 0.59546 0.04500
C 	C 	0.46363 0.59004 0.59042 0.04500
C 	C 	0.47823 0.63063 0.58920 -0.03800
C 	C 	0.52147 0.63009 0.58914 -0.03800
C 	C 	0.53471 0.58917 0.59030 0.04400
C 	C 	0.57980 0.57779 0.59058 -0.01300
C 	C 	0.58705 0.53383 0.59487 0.05200
C 	C 	0.62789 0.52055 0.49647 -0.03900
C 	C 	0.62761 0.47883 0.49900 -0.04000
C 	C 	0.58661 0.46579 0.50055 0.05200
C 	C 	0.41803 0.57993 0.59079 -0.01100
C 	C 	0.53345 0.41111 0.50507 0.04500
C 	C 	0.51929 0.37039 0.50622 -0.03800
C 	C 	0.97880 0.62791 0.55640 -0.08500
C 	C 	0.96469 0.58718 0.55520 0.03000
C 	C 	0.91937 0.57635 0.55482 -0.00900
C 	C 	0.91160 0.53235 0.55048 0.04800
C 	C 	0.87063 0.51922 0.54889 -0.03800
Ni	Ni	0.99986 0.49814 0.54759 0.93800
C 	C 	0.91129 0.46432 0.54472 0.05300
C 	C 	0.87043 0.47749 0.54633 -0.04000
C 	C 	0.08085 0.57611 0.55494 -0.00900
H 	H 	0.95800 0.34119 0.53813 0.05200
H 	H 	0.03984 0.34096 0.53807 0.03900
H 	H 	0.15696 0.45878 0.54530 0.04700
H 	H 	0.15720 0.53758 0.54999 0.04600
N 	N 	0.99961 0.43599 0.54157 -0.29300
N 	N 	0.06100 0.49802 0.54760 -0.27300
N 	N 	0.00007 0.56028 0.55360 -0.24300
N 	N 	0.93874 0.49830 0.54759 -0.28400
H 	H 	0.04143 0.65512 0.55693 0.03700
H 	H 	0.95969 0.65527 0.55696 0.05100
H 	H 	0.84281 0.53767 0.54987 0.04600
H 	H 	0.84240 0.45908 0.54537 0.04700
C 	C 	0.96387 0.40927 0.53996 0.05600
C 	C 	0.97748 0.36847 0.53872 -0.08900
C 	C 	0.02076 0.36834 0.53868 0.00800
C 	C 	0.03501 0.40907 0.53990 0.06100
C 	C 	0.08044 0.41986 0.54024 -0.01500
C 	C 	0.08817 0.46396 0.54466 0.05600
C 	C 	0.12912 0.47722 0.54629 -0.04200
C 	C 	0.12925 0.51902 0.54895 -0.03900
C 	C 	0.08837 0.53211 0.55055 0.05100
C 	C 	0.91867 0.42037 0.54037 -0.01600
C 	C 	0.03570 0.58706 0.55524 0.03400
C 	C 	0.02203 0.62783 0.55641 0.01400
N 	N 	0.11936 0.10355 0.53605 -0.06000
N 	N 	0.12727 0.14268 0.53076 -0.06000
N 	N 	0.11681 0.89320 0.55875 -0.06000
N 	N 	0.12316 0.85385 0.56386 -0.06000
N 	N 	0.39400 0.87516 0.58727 -0.06000
N 	N 	0.35366 0.87257 0.58337 -0.06100
N 	N 	0.36980 0.13882 0.51270 -0.06000
N 	N 	0.37685 0.09907 0.50844 -0.06000
N 	N 	0.87693 0.89353 0.55845 -0.05900
N 	N 	0.87085 0.85415 0.56356 -0.06000
N 	N 	0.87631 0.10443 0.53634 -0.05900
N 	N 	0.86889 0.14370 0.53136 -0.06000
N 	N 	0.62659 0.14377 0.51392 -0.06000
N 	N 	0.61957 0.10444 0.50883 -0.06000
N 	N 	0.62481 0.89386 0.58706 -0.05900
N 	N 	0.63118 0.85451 0.58200 -0.06000
N 	N 	0.62069 0.60458 0.58672 -0.06000
N 	N 	0.62862 0.64371 0.58146 -0.06000
N 	N 	0.62692 0.35512 0.51369 -0.06000
N 	N 	0.61939 0.39441 0.50868 -0.06000
N 	N 	0.86991 0.35428 0.53132 -0.06000
N 	N 	0.87782 0.39344 0.53652 -0.05900
N 	N 	0.87144 0.64281 0.56377 -0.06000
N 	N 	0.87886 0.60355 0.55869 -0.06000
N 	N 	0.37713 0.39372 0.50840 -0.06000
N 	N 	0.37056 0.35403 0.51282 -0.06000
N 	N 	0.37088 0.64828 0.58281 -0.06000
N 	N 	0.37792 0.60851 0.58695 -0.06000
N 	N 	0.12839 0.64282 0.56430 -0.06000
N 	N 	0.12137 0.60351 0.55890 -0.06100
N 	N 	0.12854 0.35331 0.53109 -0.06000
N 	N 	0.12102 0.39260 0.53624 -0.06000
C 	C 	0.97647 0.12886 0.63849 -0.08900
C 	C 	0.96223 0.08814 0.63972 0.05900
C 	C 	0.91685 0.07727 0.64013 -0.01700
C 	C 	0.90908 0.03324 0.64441 0.06300
C 	C 	0.86814 0.01990 0.64597 -0.01100
Ni	Ni	0.99728 0.99916 0.64724 0.94000
C 	C 	0.90902 0.96516 0.65012 0.06000
C 	C 	0.86812 0.97809 0.64852 -0.07200
C 	C 	0.07850 0.07672 0.63997 -0.01700
H 	H 	0.95557 0.84221 0.65645 0.05400
H 	H 	0.03723 0.84200 0.65658 0.04000
H 	H 	0.15384 0.95907 0.64922 0.05000
H 	H 	0.15471 0.03773 0.64487 0.04300
N 	N 	0.99700 0.93710 0.65319 -0.29500
N 	N 	0.05827 0.99892 0.64723 -0.28500
N 	N 	0.99760 0.06124 0.64129 -0.28700
N 	N 	0.93627 0.99927 0.64726 -0.29600
H 	H 	0.03925 0.15599 0.63786 0.03900
H 	H 	0.95741 0.15625 0.63791 0.05200
H 	H 	0.84027 0.03827 0.64496 0.04200
H 	H 	0.84028 0.95942 0.64942 0.05100
C 	C 	0.96158 0.91030 0.65477 0.05900
C 	C 	0.97501 0.86948 0.65595 -0.09100
C 	C 	0.01813 0.86936 0.65601 0.00800
C 	C 	0.03209 0.91013 0.65484 0.06400
C 	C 	0.07705 0.92089 0.65455 -0.01800
C 	C 	0.08518 0.96478 0.65012 0.06400
C 	C 	0.12620 0.97768 0.64844 -0.07200
C 	C 	0.12661 0.01944 0.64588 -0.01400
C 	C 	0.08580 0.03278 0.64431 0.06600
C 	C 	0.91681 0.92128 0.65443 -0.01800
C 	C 	0.03335 0.08791 0.63965 0.06300
C 	C 	0.01976 0.12872 0.63846 0.00600
C 	C 	0.11802 0.72659 0.66798 -0.03900
C 	C 	0.15935 0.71474 0.66842 0.05200
C 	C 	0.16835 0.67107 0.66777 -0.01300
C 	C 	0.21396 0.66158 0.67097 0.04400
C 	C 	0.22893 0.62128 0.67222 -0.03800
Ni	Ni	0.24667 0.75178 0.67358 0.95300
C 	C 	0.28506 0.66389 0.67603 0.04400
C 	C 	0.27217 0.62268 0.67467 -0.03800
C 	C 	0.16349 0.82692 0.66758 -0.01300
H 	H 	0.40524 0.71896 0.58020 0.04500
H 	H 	0.40220 0.79891 0.58017 0.05000
H 	H 	0.28048 0.91034 0.67567 0.04000
H 	H 	0.19942 0.90688 0.67158 0.04500
N 	N 	0.30822 0.75461 0.67798 -0.27800
N 	N 	0.24384 0.81354 0.67343 -0.27400
N 	N 	0.18558 0.74962 0.66936 -0.28200
N 	N 	0.24879 0.68956 0.67356 -0.27100
H 	H 	0.08837 0.78599 0.66767 0.04900
H 	H 	0.09065 0.70729 0.66792 0.04900
H 	H 	0.21038 0.59334 0.67125 0.04500
H 	H 	0.29210 0.59594 0.67553 0.04600
C 	C 	0.33656 0.72118 0.67908 0.04700
C 	C 	0.37686 0.73661 0.67985 -0.03800
C 	C 	0.37532 0.77902 0.67993 -0.04000
C 	C 	0.33408 0.79057 0.67928 0.05000
C 	C 	0.32285 0.83458 0.67947 -0.01300
C 	C 	0.27763 0.84183 0.67593 0.04600
C 	C 	0.26239 0.88209 0.67464 -0.03800
C 	C 	0.21961 0.88040 0.67224 -0.04100
C 	C 	0.20773 0.83914 0.67086 0.04900
C 	C 	0.33017 0.67601 0.67937 -0.01100
C 	C 	0.15717 0.78273 0.66828 0.05300
C 	C 	0.11672 0.76832 0.66788 -0.04000
C 	C 	0.48540 0.86563 0.69023 -0.03800
C 	C 	0.47014 0.90587 0.69124 0.04600
C 	C 	0.42487 0.91309 0.69117 -0.01400
C 	C 	0.41362 0.95703 0.69502 0.05700
C 	C 	0.37236 0.96852 0.69654 -0.07100
Ni	Ni	0.50116 0.99574 0.59799 0.94800
C 	C 	0.41115 0.02630 0.70062 0.05700
C 	C 	0.37083 0.01092 0.69915 -0.01100
C 	C 	0.58444 0.92074 0.59105 -0.01500
H 	H 	0.45577 0.15138 0.70680 0.04600
H 	H 	0.53751 0.15396 0.60698 0.04500
H 	H 	0.65732 0.04025 0.59982 0.04200
H 	H 	0.65959 0.96154 0.59552 0.05100
N 	N 	0.49905 0.05780 0.70360 -0.26600
N 	N 	0.56236 0.99789 0.59798 -0.29400
N 	N 	0.50398 0.93415 0.59252 -0.27600
N 	N 	0.43951 0.99292 0.69786 -0.28900
H 	H 	0.54836 0.84086 0.58977 0.04700
H 	H 	0.46731 0.83739 0.68978 0.04200
H 	H 	0.34549 0.94861 0.69572 0.05500
H 	H 	0.34247 0.02856 0.70027 0.04200
C 	C 	0.46275 0.08346 0.70506 0.04700
C 	C 	0.47569 0.12464 0.70626 -0.03900
C 	C 	0.51895 0.12603 0.60636 -0.03900
C 	C 	0.53393 0.08574 0.60524 0.04600
C 	C 	0.57958 0.07628 0.60496 -0.01500
C 	C 	0.58860 0.03271 0.60071 0.06200
C 	C 	0.62995 0.02092 0.59906 -0.01100
C 	C 	0.63125 0.97921 0.59657 -0.07300
C 	C 	0.59078 0.96484 0.59514 0.06000
C 	C 	0.41758 0.07139 0.70470 -0.01300
C 	C 	0.54013 0.90856 0.59099 0.04900
C 	C 	0.52820 0.86733 0.59012 -0.04000
C 	C 	0.12005 0.22693 0.62719 -0.03900
C 	C 	0.16087 0.21361 0.62677 0.05100
C 	C 	0.16812 0.16955 0.62738 -0.01300
C 	C 	0.21316 0.15815 0.62425 0.04400
C 	C 	0.22637 0.11722 0.62295 -0.03700
Ni	Ni	0.24948 0.24712 0.62182 0.95300
C 	C 	0.28416 0.15731 0.61931 0.04500
C 	C 	0.26959 0.11669 0.62055 -0.03800
C 	C 	0.16905 0.32590 0.62759 -0.01200
H 	H 	0.40617 0.20685 0.61584 0.04500
H 	H 	0.40660 0.28631 0.61587 0.04500
H 	H 	0.29114 0.40456 0.61990 0.04600
H 	H 	0.20941 0.40471 0.62412 0.04500
N 	N 	0.31062 0.24668 0.61774 -0.28100
N 	N 	0.24973 0.30956 0.62192 -0.27000
N 	N 	0.18840 0.24758 0.62584 -0.28200
N 	N 	0.24904 0.18466 0.62178 -0.27000
H 	H 	0.09253 0.28717 0.62743 0.04900
H 	H 	0.09198 0.20860 0.62732 0.04900
H 	H 	0.20665 0.09010 0.62377 0.04600
H 	H 	0.28842 0.08911 0.61957 0.04800
C 	C 	0.33762 0.21213 0.61666 0.04900
C 	C 	0.37851 0.22553 0.61613 -0.03900
C 	C 	0.37873 0.26764 0.61615 -0.03900
C 	C 	0.33796 0.28108 0.61672 0.04800
C 	C 	0.33042 0.32562 0.61626 -0.01200
C 	C 	0.28531 0.33642 0.61947 0.04500
C 	C 	0.27171 0.37724 0.62078 -0.03800
C 	C 	0.22851 0.37734 0.62320 -0.03800
C 	C 	0.21440 0.33659 0.62445 0.04500
C 	C 	0.32970 0.16747 0.61614 -0.01100
C 	C 	0.16130 0.28178 0.62687 0.05200
C 	C 	0.12033 0.26867 0.62724 -0.03900
C 	C 	0.61870 0.22846 0.61738 -0.03900
C 	C 	0.65957 0.21532 0.61781 0.05100
C 	C 	0.66709 0.17123 0.61722 -0.01300
C 	C 	0.71218 0.16022 0.62029 0.04500
C 	C 	0.72580 0.11943 0.62158 -0.03800
Ni	Ni	0.74798 0.24935 0.62259 0.95400
C 	C 	0.78311 0.16010 0.62506 0.04500
C 	C 	0.76902 0.11935 0.62389 -0.03800
C 	C 	0.66748 0.32779 0.61707 -0.01200
H 	H 	0.90492 0.20982 0.62794 0.04300
H 	H 	0.90532 0.28840 0.62790 0.04300
H 	H 	0.78983 0.40653 0.62456 0.04500
H 	H 	0.70801 0.40676 0.62049 0.04500
N 	N 	0.80901 0.24918 0.62643 -0.28200
N 	N 	0.74823 0.31168 0.62255 -0.27000
N 	N 	0.68693 0.24947 0.61874 -0.28200
N 	N 	0.74778 0.18703 0.62265 -0.27100
H 	H 	0.59098 0.28870 0.71715 0.04600
H 	H 	0.59075 0.20990 0.71719 0.04600
H 	H 	0.70639 0.09213 0.62088 0.04700
H 	H 	0.78813 0.09198 0.62480 0.04700
C 	C 	0.83614 0.21507 0.62739 0.05200
C 	C 	0.87710 0.22825 0.62777 -0.04000
C 	C 	0.87729 0.27000 0.62775 -0.04000
C 	C 	0.83644 0.28323 0.62736 0.05200
C 	C 	0.82908 0.32728 0.62801 -0.01300
C 	C 	0.78393 0.33842 0.62496 0.04500
C 	C 	0.77035 0.37925 0.62372 -0.03800
C 	C 	0.72708 0.37937 0.62136 -0.03800
C 	C 	0.71287 0.33863 0.62013 0.04500
C 	C 	0.82839 0.17097 0.62805 -0.01200
C 	C 	0.65977 0.28360 0.61774 0.05100
C 	C 	0.61883 0.27028 0.71735 -0.04000
C 	C 	0.62141 0.72801 0.67781 -0.04000
C 	C 	0.66219 0.71462 0.67747 0.05200
C 	C 	0.66947 0.67058 0.67812 -0.01300
C 	C 	0.71457 0.65935 0.67506 0.04500
C 	C 	0.72812 0.61851 0.67380 -0.03800
Ni	Ni	0.75061 0.74831 0.67268 0.95500
C 	C 	0.78560 0.65912 0.67020 0.04500
C 	C 	0.77139 0.61838 0.67144 -0.03800
C 	C 	0.67093 0.82674 0.67837 -0.01300
H 	H 	0.90750 0.70917 0.66720 0.04300
H 	H 	0.90748 0.78801 0.66724 0.04200
H 	H 	0.79234 0.90549 0.67083 0.04400
H 	H 	0.71069 0.90570 0.67497 0.04400
N 	N 	0.81152 0.74819 0.66876 -0.28300
N 	N 	0.75089 0.81055 0.67274 -0.27200
N 	N 	0.68972 0.74854 0.67658 -0.28300
N 	N 	0.75028 0.68605 0.67264 -0.27100
H 	H 	0.59418 0.78834 0.67784 0.04500
H 	H 	0.59330 0.70974 0.67787 0.04600
H 	H 	0.70863 0.59124 0.67464 0.04500
H 	H 	0.79046 0.59098 0.67056 0.04500
C 	C 	0.83869 0.71416 0.66778 0.05200
C 	C 	0.87962 0.72754 0.66737 -0.04000
C 	C 	0.87964 0.76937 0.66737 -0.04000
C 	C 	0.83876 0.78236 0.66777 0.05200
C 	C 	0.83099 0.82633 0.66711 -0.01400
C 	C 	0.78627 0.83736 0.67027 0.04700
C 	C 	0.77289 0.87821 0.67161 -0.03900
C 	C 	0.72979 0.87833 0.67403 -0.03900
C 	C 	0.71584 0.83755 0.67527 0.04700
C 	C 	0.83094 0.67004 0.66714 -0.01200
C 	C 	0.66282 0.78275 0.67758 0.05200
C 	C 	0.62183 0.76978 0.67785 -0.04000
C 	C 	0.47608 0.37050 0.60615 -0.03800
C 	C 	0.46245 0.41130 0.60494 0.04500
C 	C 	0.41728 0.42207 0.60459 -0.01200
C 	C 	0.40973 0.46652 0.60047 0.04900
C 	C 	0.36895 0.47992 0.69897 -0.03900
Ni	Ni	0.49834 0.50041 0.59769 0.95300
C 	C 	0.41009 0.53535 0.69492 0.04900
C 	C 	0.36918 0.52201 0.69643 -0.03900
C 	C 	0.57884 0.42176 0.60481 -0.01200
H 	H 	0.45940 0.65821 0.68858 0.04600
H 	H 	0.54119 0.65719 0.68855 0.04500
H 	H 	0.65596 0.53889 0.69555 0.04600
H 	H 	0.65539 0.46033 0.59998 0.04600
N 	N 	0.49878 0.56270 0.69194 -0.27000
N 	N 	0.55951 0.49993 0.59770 -0.28200
N 	N 	0.49807 0.43812 0.60344 -0.27100
N 	N 	0.43710 0.50085 0.69769 -0.28000
H 	H 	0.53839 0.34302 0.60683 0.04500
H 	H 	0.45664 0.34319 0.60671 0.04600
H 	H 	0.34108 0.46126 0.59996 0.04500
H 	H 	0.34153 0.54070 0.69546 0.04500
C 	C 	0.46362 0.59004 0.69042 0.04500
C 	C 	0.47823 0.63063 0.68920 -0.03800
C 	C 	0.52147 0.63009 0.68914 -0.03800
C 	C 	0.53471 0.58917 0.69030 0.04400
C 	C 	0.57980 0.57779 0.69058 -0.01300
C 	C 	0.58705 0.53383 0.69487 0.05200
C 	C 	0.62788 0.52056 0.59647 -0.03900
C 	C 	0.62760 0.47884 0.59900 -0.04000
C 	C 	0.58661 0.46579 0.60055 0.05200
C 	C 	0.41803 0.57992 0.69079 -0.01100
C 	C 	0.53344 0.41111 0.60507 0.04500
C 	C 	0.51929 0.37039 0.60622 -0.03800
C 	C 	0.97880 0.62791 0.65640 -0.08400
C 	C 	0.96469 0.58718 0.65520 0.03000
C 	C 	0.91937 0.57635 0.65482 -0.00900
C 	C 	0.91160 0.53235 0.65048 0.04800
C 	C 	0.87063 0.51922 0.64889 -0.03800
Ni	Ni	0.99986 0.49814 0.64759 0.93800
C 	C 	0.91129 0.46432 0.64472 0.05300
C 	C 	0.87043 0.47749 0.64633 -0.04000
C 	C 	0.08085 0.57611 0.65494 -0.00900
H 	H 	0.95800 0.34119 0.63813 0.05200
H 	H 	0.03984 0.34096 0.63807 0.03900
H 	H 	0.15696 0.45878 0.64530 0.04700
H 	H 	0.15720 0.53758 0.64999 0.04600
N 	N 	0.99961 0.43599 0.64157 -0.29300
N 	N 	0.06100 0.49802 0.64760 -0.27300
N 	N 	0.00007 0.56028 0.65360 -0.24300
N 	N 	0.93874 0.49830 0.64759 -0.28400
H 	H 	0.04143 0.65512 0.65693 0.03700
H 	H 	0.95969 0.65527 0.65696 0.05100
H 	H 	0.84281 0.53767 0.64987 0.04600
H 	H 	0.84240 0.45908 0.64537 0.04700
C 	C 	0.96387 0.40927 0.63996 0.05600
C 	C 	0.97748 0.36847 0.63872 -0.08900
C 	C 	0.02077 0.36834 0.63868 0.00700
C 	C 	0.03501 0.40907 0.63990 0.06100
C 	C 	0.08044 0.41986 0.64024 -0.01500
C 	C 	0.08817 0.46396 0.64466 0.05600
C 	C 	0.12912 0.47722 0.64629 -0.04200
C 	C 	0.12925 0.51902 0.64895 -0.03900
C 	C 	0.08837 0.53211 0.65055 0.05100
C 	C 	0.91867 0.42037 0.64037 -0.01600
C 	C 	0.03570 0.58706 0.65524 0.03400
C 	C 	0.02204 0.62783 0.65641 0.01300
N 	N 	0.11936 0.10355 0.63605 -0.06000
N 	N 	0.12726 0.14268 0.63076 -0.06000
N 	N 	0.11681 0.89320 0.65875 -0.06000
N 	N 	0.12315 0.85385 0.66386 -0.06000
N 	N 	0.39400 0.87516 0.68727 -0.06000
N 	N 	0.35366 0.87256 0.68337 -0.06100
N 	N 	0.36980 0.13883 0.61270 -0.06000
N 	N 	0.37685 0.09907 0.60844 -0.06000
N 	N 	0.87693 0.89353 0.65845 -0.05900
N 	N 	0.87085 0.85415 0.66356 -0.06000
N 	N 	0.87631 0.10444 0.63634 -0.05900
N 	N 	0.86888 0.14370 0.63136 -0.06000
N 	N 	0.62659 0.14377 0.61392 -0.06000
N 	N 	0.61957 0.10444 0.60883 -0.06000
N 	N 	0.62481 0.89386 0.68706 -0.05900
N 	N 	0.63118 0.85450 0.68200 -0.06000
N 	N 	0.62069 0.60458 0.68672 -0.06000
N 	N 	0.62862 0.64370 0.68146 -0.06000
N 	N 	0.62692 0.35512 0.61369 -0.06000
N 	N 	0.61939 0.39442 0.60868 -0.06000
N 	N 	0.86991 0.35428 0.63132 -0.06000
N 	N 	0.87782 0.39344 0.63652 -0.05900
N 	N 	0.87144 0.64281 0.66377 -0.06000
N 	N 	0.87886 0.60355 0.65869 -0.06000
N 	N 	0.37713 0.39372 0.60840 -0.06000
N 	N 	0.37055 0.35403 0.61282 -0.06000
N 	N 	0.37087 0.64827 0.68281 -0.06000
N 	N 	0.37792 0.60851 0.68695 -0.06000
N 	N 	0.12839 0.64282 0.66430 -0.06000
N 	N 	0.12137 0.60351 0.65889 -0.06100
N 	N 	0.12854 0.35331 0.63109 -0.06000
N 	N 	0.12102 0.39260 0.63624 -0.06000
C 	C 	0.97648 0.12886 0.73849 -0.08900
C 	C 	0.96223 0.08814 0.73972 0.05900
C 	C 	0.91685 0.07727 0.74013 -0.01700
C 	C 	0.90908 0.03324 0.74441 0.06300
C 	C 	0.86814 0.01990 0.74597 -0.01100
Ni	Ni	0.99728 0.99916 0.74724 0.94000
C 	C 	0.90903 0.96516 0.75012 0.06000
C 	C 	0.86813 0.97809 0.74852 -0.07200
C 	C 	0.07850 0.07672 0.73997 -0.01700
H 	H 	0.95558 0.84222 0.75645 0.05400
H 	H 	0.03723 0.84200 0.75658 0.04000
H 	H 	0.15385 0.95907 0.74922 0.05000
H 	H 	0.15471 0.03773 0.74487 0.04300
N 	N 	0.99700 0.93710 0.75319 -0.29500
N 	N 	0.05827 0.99892 0.74723 -0.28500
N 	N 	0.99760 0.06124 0.74129 -0.28600
N 	N 	0.93627 0.99928 0.74726 -0.29600
H 	H 	0.03926 0.15599 0.73786 0.03900
H 	H 	0.95741 0.15625 0.73791 0.05200
H 	H 	0.84027 0.03827 0.74496 0.04200
H 	H 	0.84029 0.95942 0.74942 0.05100
C 	C 	0.96159 0.91031 0.75477 0.05900
C 	C 	0.97502 0.86948 0.75595 -0.09100
C 	C 	0.01813 0.86936 0.75601 0.00800
C 	C 	0.03210 0.91013 0.75484 0.06400
C 	C 	0.07705 0.92089 0.75455 -0.01800
C 	C 	0.08519 0.96478 0.75012 0.06400
C 	C 	0.12620 0.97769 0.74844 -0.07200
C 	C 	0.12661 0.01944 0.74588 -0.01400
C 	C 	0.08581 0.03278 0.74431 0.06600
C 	C 	0.91682 0.92129 0.75443 -0.01800
C 	C 	0.03335 0.08792 0.73965 0.06300
C 	C 	0.01976 0.12873 0.73846 0.00600
C 	C 	0.11803 0.72659 0.76798 -0.03900
C 	C 	0.15936 0.71474 0.76842 0.05200
C 	C 	0.16836 0.67107 0.76777 -0.01300
C 	C 	0.21397 0.66159 0.77098 0.04400
C 	C 	0.22894 0.62129 0.77222 -0.03800
Ni	Ni	0.24668 0.75178 0.77358 0.95300
C 	C 	0.28506 0.66389 0.77603 0.04400
C 	C 	0.27217 0.62269 0.77467 -0.03800
C 	C 	0.16349 0.82692 0.76758 -0.01300
H 	H 	0.40524 0.71896 0.68020 0.04500
H 	H 	0.40220 0.79891 0.68016 0.05000
H 	H 	0.28048 0.91034 0.77567 0.04000
H 	H 	0.19942 0.90688 0.77158 0.04500
N 	N 	0.30823 0.75461 0.77798 -0.27800
N 	N 	0.24385 0.81354 0.77343 -0.27400
N 	N 	0.18558 0.74962 0.76936 -0.28200
N 	N 	0.24880 0.68956 0.77356 -0.27100
H 	H 	0.08838 0.78599 0.76767 0.04900
H 	H 	0.09066 0.70729 0.76792 0.04900
H 	H 	0.21039 0.59334 0.77125 0.04500
H 	H 	0.29211 0.59594 0.77553 0.04600
C 	C 	0.33657 0.72118 0.77908 0.04700
C 	C 	0.37687 0.73661 0.77985 -0.03800
C 	C 	0.37533 0.77902 0.77993 -0.04000
C 	C 	0.33409 0.79057 0.77928 0.05000
C 	C 	0.32285 0.83458 0.77947 -0.01300
C 	C 	0.27763 0.84183 0.77593 0.04600
C 	C 	0.26239 0.88209 0.77464 -0.03800
C 	C 	0.21961 0.88040 0.77224 -0.04100
C 	C 	0.20774 0.83915 0.77086 0.04900
C 	C 	0.33017 0.67601 0.77937 -0.01100
C 	C 	0.15718 0.78273 0.76828 0.05300
C 	C 	0.11672 0.76832 0.76788 -0.04000
C 	C 	0.48541 0.86564 0.79022 -0.03800
C 	C 	0.47015 0.90588 0.79124 0.04600
C 	C 	0.42487 0.91310 0.79117 -0.01400
C 	C 	0.41362 0.95703 0.79502 0.05700
C 	C 	0.37237 0.96853 0.79654 -0.07000
Ni	Ni	0.50116 0.99574 0.69799 0.94800
C 	C 	0.41116 0.02630 0.80062 0.05700
C 	C 	0.37084 0.01092 0.79915 -0.01100
C 	C 	0.58444 0.92073 0.69105 -0.01500
H 	H 	0.45577 0.15139 0.80680 0.04600
H 	H 	0.53751 0.15396 0.70698 0.04500
H 	H 	0.65732 0.04025 0.69982 0.04200
H 	H 	0.65959 0.96154 0.69552 0.05100
N 	N 	0.49906 0.05780 0.80360 -0.26600
N 	N 	0.56236 0.99788 0.69798 -0.29400
N 	N 	0.50398 0.93414 0.69252 -0.27500
N 	N 	0.43951 0.99293 0.79786 -0.28900
H 	H 	0.54836 0.84085 0.68977 0.04700
H 	H 	0.46732 0.83739 0.78978 0.04200
H 	H 	0.34550 0.94862 0.79572 0.05500
H 	H 	0.34247 0.02856 0.80027 0.04200
C 	C 	0.46276 0.08346 0.80506 0.04700
C 	C 	0.47570 0.12464 0.80626 -0.03800
C 	C 	0.51895 0.12602 0.70636 -0.03900
C 	C 	0.53393 0.08574 0.70523 0.04600
C 	C 	0.57958 0.07628 0.70496 -0.01500
C 	C 	0.58860 0.03271 0.70071 0.06200
C 	C 	0.62995 0.02092 0.69906 -0.01100
C 	C 	0.63125 0.97921 0.69657 -0.07200
C 	C 	0.59078 0.96484 0.69514 0.06000
C 	C 	0.41758 0.07139 0.80470 -0.01300
C 	C 	0.54013 0.90855 0.69099 0.04900
C 	C 	0.52820 0.86733 0.69012 -0.04000
C 	C 	0.12005 0.22693 0.72719 -0.03900
C 	C 	0.16087 0.21361 0.72677 0.05100
C 	C 	0.16812 0.16955 0.72738 -0.01300
C 	C 	0.21316 0.15815 0.72425 0.04400
C 	C 	0.22637 0.11722 0.72295 -0.03700
Ni	Ni	0.24948 0.24711 0.72182 0.95300
C 	C 	0.28416 0.15731 0.71931 0.04500
C 	C 	0.26959 0.11669 0.72055 -0.03800
C 	C 	0.16905 0.32590 0.72760 -0.01200
H 	H 	0.40617 0.20685 0.71584 0.04500
H 	H 	0.40660 0.28630 0.71587 0.04500
H 	H 	0.29114 0.40456 0.71990 0.04600
H 	H 	0.20941 0.40471 0.72412 0.04500
N 	N 	0.31062 0.24668 0.71774 -0.28100
N 	N 	0.24973 0.30956 0.72192 -0.27000
N 	N 	0.18840 0.24758 0.72584 -0.28200
N 	N 	0.24904 0.18466 0.72178 -0.27000
H 	H 	0.09253 0.28717 0.72743 0.04900
H 	H 	0.09198 0.20860 0.72732 0.04900
H 	H 	0.20665 0.09010 0.72377 0.04600
H 	H 	0.28842 0.08911 0.71957 0.04800
C 	C 	0.33761 0.21213 0.71666 0.04900
C 	C 	0.37851 0.22553 0.71613 -0.03900
C 	C 	0.37873 0.26764 0.71615 -0.03900
C 	C 	0.33796 0.28108 0.71672 0.04900
C 	C 	0.33042 0.32561 0.71626 -0.01200
C 	C 	0.28531 0.33642 0.71947 0.04500
C 	C 	0.27171 0.37724 0.72078 -0.03800
C 	C 	0.22851 0.37734 0.72320 -0.03800
C 	C 	0.21440 0.33659 0.72445 0.04500
C 	C 	0.32970 0.16747 0.71614 -0.01100
C 	C 	0.16130 0.28178 0.72687 0.05200
C 	C 	0.12032 0.26867 0.72724 -0.04000
C 	C 	0.61870 0.22845 0.71738 -0.04000
C 	C 	0.65957 0.21532 0.71781 0.05100
C 	C 	0.66709 0.17123 0.71722 -0.01300
C 	C 	0.71218 0.16022 0.72029 0.04500
C 	C 	0.72580 0.11943 0.72158 -0.03800
Ni	Ni	0.74798 0.24935 0.72259 0.95400
C 	C 	0.78311 0.16010 0.72506 0.04500
C 	C 	0.76902 0.11934 0.72389 -0.03800
C 	C 	0.66748 0.32779 0.71707 -0.01200
H 	H 	0.90492 0.20982 0.72794 0.04300
H 	H 	0.90532 0.28840 0.72790 0.04300
H 	H 	0.78983 0.40653 0.72456 0.04500
H 	H 	0.70801 0.40676 0.72049 0.04500
N 	N 	0.80901 0.24918 0.72643 -0.28200
N 	N 	0.74823 0.31168 0.72255 -0.27000
N 	N 	0.68693 0.24947 0.71874 -0.28200
N 	N 	0.74778 0.18703 0.72265 -0.27100
H 	H 	0.59099 0.28870 0.81715 0.04600
H 	H 	0.59075 0.20990 0.81719 0.04600
H 	H 	0.70639 0.09213 0.72088 0.04700
H 	H 	0.78813 0.09198 0.72480 0.04700
C 	C 	0.83614 0.21507 0.72739 0.05200
C 	C 	0.87710 0.22826 0.72777 -0.04000
C 	C 	0.87729 0.27001 0.72775 -0.04000
C 	C 	0.83644 0.28323 0.72736 0.05200
C 	C 	0.82908 0.32728 0.72801 -0.01300
C 	C 	0.78393 0.33842 0.72496 0.04500
C 	C 	0.77035 0.37925 0.72372 -0.03800
C 	C 	0.72708 0.37937 0.72136 -0.03800
C 	C 	0.71287 0.33863 0.72013 0.04500
C 	C 	0.82839 0.17097 0.72805 -0.01200
C 	C 	0.65977 0.28359 0.71774 0.05200
C 	C 	0.61883 0.27028 0.81735 -0.04000
C 	C 	0.62142 0.72802 0.77781 -0.04000
C 	C 	0.66220 0.71462 0.77747 0.05200
C 	C 	0.66947 0.67059 0.77812 -0.01300
C 	C 	0.71458 0.65935 0.77506 0.04500
C 	C 	0.72813 0.61852 0.77380 -0.03800
Ni	Ni	0.75061 0.74832 0.77268 0.95500
C 	C 	0.78561 0.65913 0.77020 0.04500
C 	C 	0.77140 0.61838 0.77144 -0.03800
C 	C 	0.67094 0.82674 0.77837 -0.01300
H 	H 	0.90750 0.70918 0.76720 0.04300
H 	H 	0.90749 0.78801 0.76724 0.04200
H 	H 	0.79235 0.90549 0.77083 0.04400
H 	H 	0.71069 0.90571 0.77497 0.04400
N 	N 	0.81153 0.74819 0.76876 -0.28300
N 	N 	0.75090 0.81055 0.77274 -0.27200
N 	N 	0.68973 0.74855 0.77658 -0.28300
N 	N 	0.75028 0.68605 0.77264 -0.27100
H 	H 	0.59418 0.78835 0.77784 0.04500
H 	H 	0.59331 0.70974 0.77786 0.04600
H 	H 	0.70863 0.59124 0.77464 0.04500
H 	H 	0.79046 0.59099 0.77056 0.04500
C 	C 	0.83870 0.71416 0.76778 0.05200
C 	C 	0.87963 0.72754 0.76737 -0.04000
C 	C 	0.87965 0.76937 0.76737 -0.04000
C 	C 	0.83876 0.78237 0.76777 0.05200
C 	C 	0.83099 0.82634 0.76711 -0.01300
C 	C 	0.78628 0.83737 0.77027 0.04700
C 	C 	0.77289 0.87822 0.77161 -0.03900
C 	C 	0.72979 0.87834 0.77403 -0.03900
C 	C 	0.71585 0.83755 0.77526 0.04700
C 	C 	0.83094 0.67004 0.76714 -0.01200
C 	C 	0.66282 0.78276 0.77758 0.05200
C 	C 	0.62183 0.76978 0.77785 -0.04000
C 	C 	0.47608 0.37050 0.70615 -0.03800
C 	C 	0.46245 0.41129 0.70494 0.04500
C 	C 	0.41728 0.42207 0.70459 -0.01200
C 	C 	0.40973 0.46652 0.70047 0.04900
C 	C 	0.36896 0.47992 0.79897 -0.03900
Ni	Ni	0.49833 0.50041 0.69769 0.95300
C 	C 	0.41011 0.53536 0.79492 0.04900
C 	C 	0.36919 0.52201 0.79643 -0.03900
C 	C 	0.57884 0.42176 0.70481 -0.01200
H 	H 	0.45941 0.65822 0.78858 0.04600
H 	H 	0.54120 0.65719 0.78855 0.04500
H 	H 	0.65597 0.53890 0.79555 0.04600
H 	H 	0.65539 0.46033 0.69997 0.04600
N 	N 	0.49879 0.56270 0.79194 -0.27000
N 	N 	0.55950 0.49993 0.69770 -0.28200
N 	N 	0.49807 0.43812 0.70344 -0.27100
N 	N 	0.43711 0.50086 0.79769 -0.28000
H 	H 	0.53839 0.34302 0.70683 0.04500
H 	H 	0.45663 0.34318 0.70671 0.04600
H 	H 	0.34108 0.46125 0.69996 0.04500
H 	H 	0.34154 0.54071 0.79546 0.04500
C 	C 	0.46363 0.59004 0.79042 0.04500
C 	C 	0.47824 0.63063 0.78920 -0.03800
C 	C 	0.52148 0.63009 0.78914 -0.03800
C 	C 	0.53472 0.58917 0.79030 0.04400
C 	C 	0.57981 0.57780 0.79058 -0.01300
C 	C 	0.58706 0.53383 0.79487 0.05200
C 	C 	0.62788 0.52056 0.69647 -0.03900
C 	C 	0.62760 0.47883 0.69900 -0.04000
C 	C 	0.58661 0.46579 0.70055 0.05200
C 	C 	0.41804 0.57993 0.79079 -0.01100
C 	C 	0.53344 0.41111 0.70507 0.04500
C 	C 	0.51929 0.37039 0.70622 -0.03800
C 	C 	0.97881 0.62791 0.75640 -0.08400
C 	C 	0.96469 0.58718 0.75520 0.03000
C 	C 	0.91937 0.57635 0.75482 -0.00900
C 	C 	0.91161 0.53235 0.75048 0.04800
C 	C 	0.87063 0.51922 0.74889 -0.03800
Ni	Ni	0.99986 0.49814 0.74759 0.93800
C 	C 	0.91129 0.46432 0.74472 0.05300
C 	C 	0.87043 0.47749 0.74633 -0.04100
C 	C 	0.08085 0.57611 0.75494 -0.00900
H 	H 	0.95800 0.34119 0.73813 0.05200
H 	H 	0.03984 0.34096 0.73807 0.03900
H 	H 	0.15696 0.45878 0.74530 0.04700
H 	H 	0.15720 0.53758 0.74999 0.04600
N 	N 	0.99961 0.43599 0.74157 -0.29200
N 	N 	0.06100 0.49802 0.74760 -0.27300
N 	N 	0.00007 0.56028 0.75360 -0.24300
N 	N 	0.93874 0.49830 0.74759 -0.28400
H 	H 	0.04143 0.65512 0.75693 0.03700
H 	H 	0.95969 0.65527 0.75696 0.05100
H 	H 	0.84281 0.53767 0.74987 0.04600
H 	H 	0.84240 0.45909 0.74537 0.04700
C 	C 	0.96387 0.40927 0.73996 0.05600
C 	C 	0.97748 0.36847 0.73872 -0.08900
C 	C 	0.02076 0.36835 0.73868 0.00700
C 	C 	0.03501 0.40907 0.73990 0.06100
C 	C 	0.08044 0.41986 0.74024 -0.01500
C 	C 	0.08817 0.46396 0.74466 0.05600
C 	C 	0.12913 0.47722 0.74629 -0.04200
C 	C 	0.12925 0.51902 0.74895 -0.03900
C 	C 	0.08837 0.53211 0.75055 0.05100
C 	C 	0.91867 0.42037 0.74037 -0.01600
C 	C 	0.03570 0.58706 0.75524 0.03400
C 	C 	0.02204 0.62783 0.75641 0.01300
N 	N 	0.11936 0.10355 0.73605 -0.06000
N 	N 	0.12727 0.14268 0.73076 -0.06000
N 	N 	0.11682 0.89320 0.75875 -0.06000
N 	N 	0.12316 0.85385 0.76386 -0.06000
N 	N 	0.39401 0.87516 0.78727 -0.06000
N 	N 	0.35366 0.87257 0.78338 -0.06100
N 	N 	0.36980 0.13882 0.71270 -0.06000
N 	N 	0.37685 0.09907 0.70844 -0.06000
N 	N 	0.87694 0.89353 0.75845 -0.05900
N 	N 	0.87085 0.85416 0.76356 -0.06000
N 	N 	0.87631 0.10444 0.73634 -0.05900
N 	N 	0.86889 0.14370 0.73136 -0.06000
N 	N 	0.62659 0.14377 0.71392 -0.06000
N 	N 	0.61957 0.10444 0.70883 -0.06000
N 	N 	0.62482 0.89386 0.78706 -0.05900
N 	N 	0.63118 0.85451 0.78200 -0.06000
N 	N 	0.62070 0.60458 0.78672 -0.06000
N 	N 	0.62863 0.64371 0.78146 -0.06000
N 	N 	0.62691 0.35512 0.71369 -0.06000
N 	N 	0.61938 0.39442 0.70868 -0.06000
N 	N 	0.86991 0.35428 0.73132 -0.06000
N 	N 	0.87782 0.39344 0.73652 -0.05900
N 	N 	0.87145 0.64281 0.76377 -0.06000
N 	N 	0.87886 0.60355 0.75869 -0.06000
N 	N 	0.37713 0.39372 0.70840 -0.06000
N 	N 	0.37055 0.35403 0.71282 -0.06000
N 	N 	0.37088 0.64828 0.78281 -0.06000
N 	N 	0.37793 0.60852 0.78695 -0.06000
N 	N 	0.12840 0.64282 0.76430 -0.06000
N 	N 	0.12137 0.60351 0.75890 -0.06100
N 	N 	0.12854 0.35331 0.73109 -0.06000
N 	N 	0.12102 0.39260 0.73624 -0.06000
C 	C 	0.97647 0.12886 0.83849 -0.08900
C 	C 	0.96223 0.08814 0.83972 0.05900
C 	C 	0.91685 0.07727 0.84013 -0.01700
C 	C 	0.90908 0.03324 0.84441 0.06300
C 	C 	0.86814 0.01990 0.84597 -0.01100
Ni	Ni	0.99728 0.99915 0.84724 0.94000
C 	C 	0.90902 0.96515 0.85012 0.06000
C 	C 	0.86812 0.97809 0.84852 -0.07200
C 	C 	0.07850 0.07672 0.83997 -0.01700
H 	H 	0.95557 0.84221 0.85645 0.05400
H 	H 	0.03723 0.84200 0.85658 0.04000
H 	H 	0.15384 0.95907 0.84922 0.05000
H 	H 	0.15471 0.03773 0.84487 0.04300
N 	N 	0.99699 0.93710 0.85319 -0.29400
N 	N 	0.05826 0.99892 0.84723 -0.28500
N 	N 	0.99760 0.06124 0.84129 -0.28600
N 	N 	0.93627 0.99927 0.84726 -0.29600
H 	H 	0.03925 0.15599 0.83786 0.03900
H 	H 	0.95741 0.15625 0.83791 0.05200
H 	H 	0.84027 0.03827 0.84496 0.04200
H 	H 	0.84028 0.95942 0.84942 0.05100
C 	C 	0.96158 0.91030 0.85477 0.05900
C 	C 	0.97501 0.86948 0.85595 -0.09100
C 	C 	0.01813 0.86936 0.85601 0.00800
C 	C 	0.03209 0.91012 0.85484 0.06400
C 	C 	0.07704 0.92089 0.85455 -0.01800
C 	C 	0.08518 0.96477 0.85012 0.06400
C 	C 	0.12620 0.97768 0.84844 -0.07200
C 	C 	0.12661 0.01943 0.84588 -0.01400
C 	C 	0.08580 0.03278 0.84431 0.06600
C 	C 	0.91681 0.92128 0.85443 -0.01800
C 	C 	0.03335 0.08791 0.83965 0.06300
C 	C 	0.01976 0.12872 0.83846 0.00600
C 	C 	0.11802 0.72659 0.86798 -0.03900
C 	C 	0.15935 0.71473 0.86842 0.05200
C 	C 	0.16835 0.67107 0.86777 -0.01300
C 	C 	0.21395 0.66158 0.87097 0.04400
C 	C 	0.22892 0.62128 0.87222 -0.03800
Ni	Ni	0.24667 0.75178 0.87358 0.95300
C 	C 	0.28505 0.66389 0.87603 0.04400
C 	C 	0.27216 0.62268 0.87467 -0.03800
C 	C 	0.16348 0.82691 0.86758 -0.01300
H 	H 	0.40524 0.71896 0.78020 0.04500
H 	H 	0.40220 0.79892 0.78017 0.05000
H 	H 	0.28048 0.91033 0.87567 0.04000
H 	H 	0.19941 0.90688 0.87158 0.04500
N 	N 	0.30821 0.75461 0.87798 -0.27800
N 	N 	0.24384 0.81353 0.87343 -0.27400
N 	N 	0.18557 0.74962 0.86936 -0.28200
N 	N 	0.24878 0.68956 0.87356 -0.27100
H 	H 	0.08837 0.78599 0.86767 0.04900
H 	H 	0.09065 0.70729 0.86792 0.04900
H 	H 	0.21037 0.59333 0.87125 0.04500
H 	H 	0.29210 0.59594 0.87553 0.04600
C 	C 	0.33656 0.72118 0.87908 0.04700
C 	C 	0.37686 0.73660 0.87985 -0.03800
C 	C 	0.37532 0.77902 0.87993 -0.04000
C 	C 	0.33408 0.79057 0.87928 0.05000
C 	C 	0.32284 0.83458 0.87947 -0.01300
C 	C 	0.27763 0.84182 0.87593 0.04600
C 	C 	0.26239 0.88208 0.87464 -0.03800
C 	C 	0.21961 0.88040 0.87224 -0.04100
C 	C 	0.20773 0.83914 0.87086 0.04900
C 	C 	0.33016 0.67600 0.87937 -0.01100
C 	C 	0.15717 0.78272 0.86828 0.05300
C 	C 	0.11671 0.76832 0.86788 -0.04000
C 	C 	0.48540 0.86563 0.89023 -0.03800
C 	C 	0.47014 0.90587 0.89124 0.04600
C 	C 	0.42486 0.91309 0.89117 -0.01400
C 	C 	0.41361 0.95702 0.89502 0.05700
C 	C 	0.37236 0.96852 0.89654 -0.07000
Ni	Ni	0.50116 0.99574 0.79799 0.94800
C 	C 	0.41115 0.02629 0.90062 0.05600
C 	C 	0.37083 0.01091 0.89915 -0.01100
C 	C 	0.58445 0.92074 0.79105 -0.01500
H 	H 	0.45576 0.15138 0.90680 0.04600
H 	H 	0.53752 0.15396 0.80698 0.04500
H 	H 	0.65732 0.04025 0.79982 0.04200
H 	H 	0.65959 0.96154 0.79552 0.05100
N 	N 	0.49905 0.05779 0.90360 -0.26600
N 	N 	0.56236 0.99789 0.79798 -0.29400
N 	N 	0.50399 0.93415 0.79252 -0.27600
N 	N 	0.43950 0.99292 0.89786 -0.28900
H 	H 	0.54836 0.84086 0.78977 0.04700
H 	H 	0.46731 0.83738 0.88978 0.04200
H 	H 	0.34549 0.94861 0.89572 0.05500
H 	H 	0.34246 0.02856 0.90027 0.04100
C 	C 	0.46275 0.08346 0.90506 0.04600
C 	C 	0.47569 0.12463 0.90626 -0.03900
C 	C 	0.51895 0.12603 0.80636 -0.03900
C 	C 	0.53394 0.08574 0.80524 0.04600
C 	C 	0.57959 0.07628 0.80496 -0.01500
C 	C 	0.58860 0.03271 0.80071 0.06200
C 	C 	0.62995 0.02092 0.79906 -0.01100
C 	C 	0.63126 0.97921 0.79657 -0.07200
C 	C 	0.59078 0.96485 0.79514 0.06000
C 	C 	0.41757 0.07139 0.90470 -0.01300
C 	C 	0.54014 0.90856 0.79099 0.04900
C 	C 	0.52820 0.86733 0.79012 -0.04000
C 	C 	0.12006 0.22693 0.82719 -0.03900
C 	C 	0.16088 0.21361 0.82677 0.05100
C 	C 	0.16812 0.16955 0.82738 -0.01300
C 	C 	0.21317 0.15816 0.82425 0.04400
C 	C 	0.22637 0.11722 0.82295 -0.03700
Ni	Ni	0.24948 0.24712 0.82182 0.95300
C 	C 	0.28417 0.15731 0.81931 0.04500
C 	C 	0.26960 0.11670 0.82055 -0.03800
C 	C 	0.16906 0.32590 0.82759 -0.01200
H 	H 	0.40618 0.20685 0.81584 0.04500
H 	H 	0.40661 0.28631 0.81587 0.04500
H 	H 	0.29115 0.40456 0.81990 0.04600
H 	H 	0.20942 0.40471 0.82412 0.04500
N 	N 	0.31062 0.24668 0.81774 -0.28100
N 	N 	0.24974 0.30956 0.82192 -0.27000
N 	N 	0.18840 0.24758 0.82584 -0.28200
N 	N 	0.24904 0.18466 0.82178 -0.27000
H 	H 	0.09254 0.28717 0.82743 0.04900
H 	H 	0.09198 0.20860 0.82732 0.04900
H 	H 	0.20665 0.09010 0.82377 0.04600
H 	H 	0.28842 0.08911 0.81957 0.04800
C 	C 	0.33762 0.21213 0.81666 0.04900
C 	C 	0.37852 0.22553 0.81613 -0.03900
C 	C 	0.37874 0.26765 0.81615 -0.03900
C 	C 	0.33797 0.28108 0.81672 0.04900
C 	C 	0.33043 0.32562 0.81626 -0.01200
C 	C 	0.28531 0.33642 0.81947 0.04500
C 	C 	0.27171 0.37724 0.82078 -0.03800
C 	C 	0.22852 0.37734 0.82320 -0.03800
C 	C 	0.21441 0.33659 0.82445 0.04500
C 	C 	0.32971 0.16747 0.81614 -0.01100
C 	C 	0.16131 0.28178 0.82687 0.05200
C 	C 	0.12033 0.26868 0.82724 -0.04000
C 	C 	0.61871 0.22846 0.81738 -0.03900
C 	C 	0.65958 0.21532 0.81781 0.05100
C 	C 	0.66709 0.17123 0.81722 -0.01300
C 	C 	0.71218 0.16022 0.82029 0.04500
C 	C 	0.72580 0.11943 0.82158 -0.03800
Ni	Ni	0.74799 0.24935 0.82259 0.95400
C 	C 	0.78312 0.16010 0.82506 0.04500
C 	C 	0.76902 0.11934 0.82389 -0.03800
C 	C 	0.66749 0.32779 0.81707 -0.01200
H 	H 	0.90493 0.20981 0.82794 0.04300
H 	H 	0.90533 0.28840 0.82790 0.04300
H 	H 	0.78984 0.40653 0.82456 0.04500
H 	H 	0.70802 0.40676 0.82049 0.04500
N 	N 	0.80901 0.24918 0.82643 -0.28200
N 	N 	0.74824 0.31168 0.82255 -0.27000
N 	N 	0.68694 0.24947 0.81874 -0.28200
N 	N 	0.74778 0.18703 0.82265 -0.27100
H 	H 	0.59098 0.28870 0.91715 0.04600
H 	H 	0.59074 0.20990 0.91719 0.04600
H 	H 	0.70639 0.09213 0.82088 0.04700
H 	H 	0.78813 0.09198 0.82480 0.04700
C 	C 	0.83614 0.21507 0.82739 0.05200
C 	C 	0.87710 0.22825 0.82777 -0.04000
C 	C 	0.87730 0.27000 0.82775 -0.04000
C 	C 	0.83645 0.28323 0.82736 0.05200
C 	C 	0.82909 0.32728 0.82801 -0.01300
C 	C 	0.78394 0.33842 0.82497 0.04500
C 	C 	0.77035 0.37925 0.82372 -0.03800
C 	C 	0.72709 0.37937 0.82136 -0.03800
C 	C 	0.71288 0.33863 0.82013 0.04500
C 	C 	0.82840 0.17097 0.82805 -0.01200
C 	C 	0.65978 0.28360 0.81774 0.05200
C 	C 	0.61882 0.27028 0.91735 -0.04000
C 	C 	0.62140 0.72801 0.87781 -0.04000
C 	C 	0.66219 0.71461 0.87747 0.05200
C 	C 	0.66946 0.67058 0.87812 -0.01300
C 	C 	0.71456 0.65934 0.87506 0.04500
C 	C 	0.72812 0.61851 0.87380 -0.03800
Ni	Ni	0.75060 0.74830 0.87268 0.95500
C 	C 	0.78560 0.65912 0.87020 0.04500
C 	C 	0.77139 0.61837 0.87144 -0.03800
C 	C 	0.67093 0.82673 0.87837 -0.01300
H 	H 	0.90749 0.70917 0.86720 0.04300
H 	H 	0.90748 0.78801 0.86724 0.04200
H 	H 	0.79234 0.90548 0.87083 0.04400
H 	H 	0.71068 0.90570 0.87497 0.04400
N 	N 	0.81152 0.74818 0.86876 -0.28300
N 	N 	0.75089 0.81054 0.87274 -0.27200
N 	N 	0.68971 0.74854 0.87658 -0.28300
N 	N 	0.75027 0.68604 0.87264 -0.27100
H 	H 	0.59417 0.78834 0.87784 0.04500
H 	H 	0.59330 0.70973 0.87787 0.04600
H 	H 	0.70862 0.59123 0.87464 0.04500
H 	H 	0.79045 0.59098 0.87056 0.04500
C 	C 	0.83869 0.71415 0.86778 0.05200
C 	C 	0.87961 0.72753 0.86737 -0.04000
C 	C 	0.87963 0.76936 0.86737 -0.04000
C 	C 	0.83875 0.78236 0.86777 0.05200
C 	C 	0.83098 0.82633 0.86711 -0.01300
C 	C 	0.78627 0.83736 0.87028 0.04700
C 	C 	0.77288 0.87821 0.87161 -0.03900
C 	C 	0.72978 0.87833 0.87403 -0.03900
C 	C 	0.71584 0.83754 0.87527 0.04800
C 	C 	0.83093 0.67003 0.86714 -0.01200
C 	C 	0.66281 0.78275 0.87758 0.05200
C 	C 	0.62182 0.76977 0.87785 -0.04000
C 	C 	0.47609 0.37050 0.80615 -0.03800
C 	C 	0.46246 0.41130 0.80494 0.04500
C 	C 	0.41729 0.42207 0.80459 -0.01200
C 	C 	0.40974 0.46652 0.80047 0.04900
C 	C 	0.36894 0.47991 0.89897 -0.03900
Ni	Ni	0.49835 0.50041 0.79769 0.95300
C 	C 	0.41008 0.53535 0.89492 0.04900
C 	C 	0.36917 0.52201 0.89643 -0.03900
C 	C 	0.57885 0.42176 0.80481 -0.01200
H 	H 	0.45939 0.65821 0.88858 0.04600
H 	H 	0.54118 0.65718 0.88855 0.04500
H 	H 	0.65595 0.53889 0.89555 0.04600
H 	H 	0.65540 0.46033 0.79998 0.04600
N 	N 	0.49877 0.56270 0.89194 -0.27000
N 	N 	0.55952 0.49994 0.79770 -0.28200
N 	N 	0.49808 0.43813 0.80344 -0.27100
N 	N 	0.43709 0.50085 0.89769 -0.28000
H 	H 	0.53840 0.34302 0.80683 0.04500
H 	H 	0.45664 0.34319 0.80671 0.04600
H 	H 	0.34109 0.46126 0.79996 0.04500
H 	H 	0.34152 0.54070 0.89546 0.04500
C 	C 	0.46361 0.59003 0.89042 0.04500
C 	C 	0.47822 0.63062 0.88920 -0.03800
C 	C 	0.52146 0.63008 0.88914 -0.03800
C 	C 	0.53470 0.58916 0.89030 0.04400
C 	C 	0.57979 0.57779 0.89058 -0.01300
C 	C 	0.58704 0.53382 0.89487 0.05200
C 	C 	0.62789 0.52056 0.79647 -0.03900
C 	C 	0.62761 0.47884 0.79900 -0.04000
C 	C 	0.58662 0.46579 0.80055 0.05200
C 	C 	0.41802 0.57992 0.89079 -0.01100
C 	C 	0.53345 0.41112 0.80507 0.04500
C 	C 	0.51930 0.37039 0.80622 -0.03800
C 	C 	0.97880 0.62791 0.85640 -0.08400
C 	C 	0.96469 0.58717 0.85520 0.03000
C 	C 	0.91936 0.57634 0.85482 -0.00900
C 	C 	0.91160 0.53235 0.85048 0.04800
C 	C 	0.87063 0.51922 0.84889 -0.03800
Ni	Ni	0.99986 0.49814 0.84759 0.93900
C 	C 	0.91130 0.46432 0.84472 0.05300
C 	C 	0.87043 0.47749 0.84633 -0.04000
C 	C 	0.08085 0.57611 0.85494 -0.00900
H 	H 	0.95801 0.34119 0.83813 0.05200
H 	H 	0.03984 0.34096 0.83807 0.03900
H 	H 	0.15696 0.45878 0.84530 0.04700
H 	H 	0.15720 0.53758 0.84999 0.04600
N 	N 	0.99961 0.43599 0.84157 -0.29200
N 	N 	0.06100 0.49802 0.84760 -0.27300
N 	N 	0.00007 0.56027 0.85360 -0.24300
N 	N 	0.93875 0.49830 0.84759 -0.28400
H 	H 	0.04143 0.65512 0.85693 0.03700
H 	H 	0.95969 0.65526 0.85696 0.05100
H 	H 	0.84281 0.53767 0.84987 0.04600
H 	H 	0.84240 0.45908 0.84537 0.04700
C 	C 	0.96387 0.40927 0.83996 0.05600
C 	C 	0.97749 0.36847 0.83872 -0.08800
C 	C 	0.02077 0.36834 0.83868 0.00700
C 	C 	0.03501 0.40907 0.83990 0.06100
C 	C 	0.08044 0.41986 0.84024 -0.01500
C 	C 	0.08817 0.46396 0.84466 0.05600
C 	C 	0.12913 0.47722 0.84629 -0.04200
C 	C 	0.12925 0.51902 0.84895 -0.03900
C 	C 	0.08837 0.53211 0.85055 0.05100
C 	C 	0.91867 0.42036 0.84037 -0.01600
C 	C 	0.03570 0.58706 0.85524 0.03400
C 	C 	0.02203 0.62783 0.85641 0.01300
N 	N 	0.11936 0.10355 0.83605 -0.06000
N 	N 	0.12727 0.14268 0.83076 -0.06000
N 	N 	0.11681 0.89320 0.85875 -0.06000
N 	N 	0.12315 0.85385 0.86386 -0.06000
N 	N 	0.39400 0.87516 0.88727 -0.06000
N 	N 	0.35366 0.87256 0.88337 -0.06100
N 	N 	0.36980 0.13883 0.81270 -0.06000
N 	N 	0.37685 0.09907 0.80844 -0.06000
N 	N 	0.87693 0.89353 0.85845 -0.05900
N 	N 	0.87084 0.85415 0.86356 -0.06000
N 	N 	0.87631 0.10443 0.83634 -0.05900
N 	N 	0.86889 0.14370 0.83136 -0.06000
N 	N 	0.62659 0.14377 0.81392 -0.06000
N 	N 	0.61957 0.10444 0.80883 -0.06000
N 	N 	0.62481 0.89385 0.88706 -0.05900
N 	N 	0.63117 0.85450 0.88200 -0.06000
N 	N 	0.62068 0.60457 0.88672 -0.06000
N 	N 	0.62861 0.64370 0.88146 -0.06000
N 	N 	0.62692 0.35512 0.81369 -0.06000
N 	N 	0.61940 0.39442 0.80868 -0.06000
N 	N 	0.86991 0.35428 0.83132 -0.06000
N 	N 	0.87783 0.39344 0.83652 -0.05900
N 	N 	0.87144 0.64280 0.86377 -0.06000
N 	N 	0.87886 0.60355 0.85869 -0.06000
N 	N 	0.37714 0.39372 0.80840 -0.06000
N 	N 	0.37056 0.35403 0.81282 -0.06000
N 	N 	0.37087 0.64827 0.88281 -0.06000
N 	N 	0.37791 0.60851 0.88695 -0.06000
N 	N 	0.12839 0.64282 0.86430 -0.06000
N 	N 	0.12136 0.60351 0.85889 -0.06100
N 	N 	0.12854 0.35331 0.83109 -0.06000
N 	N 	0.12102 0.39260 0.83624 -0.06000
C 	C 	0.97647 0.12887 0.93849 -0.08900
C 	C 	0.96223 0.08814 0.93972 0.05800
C 	C 	0.91685 0.07727 0.94013 -0.01800
C 	C 	0.90908 0.03324 0.94441 0.06200
C 	C 	0.86814 0.01991 0.94597 -0.01200
Ni	Ni	0.99728 0.99916 0.94724 0.94000
C 	C 	0.90903 0.96516 0.95012 0.05900
C 	C 	0.86813 0.97810 0.94852 -0.07200
C 	C 	0.07850 0.07672 0.93997 -0.01800
H 	H 	0.95558 0.84222 0.95645 0.05300
H 	H 	0.03723 0.84200 0.95658 0.03900
H 	H 	0.15385 0.95908 0.94922 0.05000
H 	H 	0.15471 0.03773 0.94487 0.04200
N 	N 	0.99700 0.93710 0.95319 -0.29500
N 	N 	0.05827 0.99892 0.94723 -0.28500
N 	N 	0.99760 0.06124 0.94129 -0.28700
N 	N 	0.93627 0.99928 0.94726 -0.29600
H 	H 	0.03926 0.15599 0.93786 0.03800
H 	H 	0.95741 0.15626 0.93791 0.05200
H 	H 	0.84027 0.03827 0.94496 0.04200
H 	H 	0.84029 0.95943 0.94942 0.05000
C 	C 	0.96159 0.91031 0.95477 0.05800
C 	C 	0.97502 0.86948 0.95595 -0.09100
C 	C 	0.01813 0.86936 0.95601 0.00700
C 	C 	0.03210 0.91013 0.95484 0.06300
C 	C 	0.07705 0.92090 0.95455 -0.01900
C 	C 	0.08519 0.96478 0.95012 0.06300
C 	C 	0.12620 0.97769 0.94844 -0.07200
C 	C 	0.12661 0.01944 0.94588 -0.01400
C 	C 	0.08581 0.03278 0.94431 0.06500
C 	C 	0.91682 0.92129 0.95443 -0.01900
C 	C 	0.03335 0.08792 0.93965 0.06200
C 	C 	0.01976 0.12873 0.93846 0.00500
C 	C 	0.11803 0.72659 0.96798 -0.04000
C 	C 	0.15936 0.71474 0.96842 0.05200
C 	C 	0.16836 0.67107 0.96777 -0.01400
C 	C 	0.21397 0.66159 0.97098 0.04300
C 	C 	0.22894 0.62129 0.97222 -0.03800
Ni	Ni	0.24668 0.75178 0.97358 0.95300
C 	C 	0.28507 0.66389 0.97603 0.04400
C 	C 	0.27218 0.62269 0.97467 -0.03800
C 	C 	0.16349 0.82692 0.96758 -0.01400
H 	H 	0.40523 0.71896 0.88020 0.04500
H 	H 	0.40219 0.79891 0.88016 0.05000
H 	H 	0.28049 0.91034 0.97567 0.04000
H 	H 	0.19942 0.90689 0.97158 0.04500
N 	N 	0.30823 0.75462 0.97798 -0.27800
N 	N 	0.24385 0.81354 0.97343 -0.27500
N 	N 	0.18558 0.74962 0.96936 -0.28200
N 	N 	0.24880 0.68956 0.97356 -0.27100
H 	H 	0.08838 0.78599 0.96767 0.04800
H 	H 	0.09066 0.70729 0.96792 0.04800
H 	H 	0.21039 0.59334 0.97125 0.04400
H 	H 	0.29211 0.59594 0.97553 0.04500
C 	C 	0.33657 0.72119 0.97908 0.04600
C 	C 	0.37687 0.73661 0.97985 -0.03800
C 	C 	0.37533 0.77903 0.97993 -0.04100
C 	C 	0.33409 0.79057 0.97928 0.05000
C 	C 	0.32285 0.83459 0.97947 -0.01300
C 	C 	0.27764 0.84183 0.97593 0.04500
C 	C 	0.26240 0.88209 0.97464 -0.03800
C 	C 	0.21962 0.88040 0.97224 -0.04100
C 	C 	0.20774 0.83915 0.97086 0.04900
C 	C 	0.33018 0.67601 0.97937 -0.01200
C 	C 	0.15718 0.78273 0.96828 0.05200
C 	C 	0.11672 0.76832 0.96788 -0.04100
C 	C 	0.48541 0.86564 0.99022 -0.03800
C 	C 	0.47015 0.90588 0.99124 0.04500
C 	C 	0.42488 0.91310 0.99117 -0.01500
C 	C 	0.41362 0.95703 0.99502 0.05500
C 	C 	0.37237 0.96853 0.99654 -0.06700
Ni	Ni	0.50115 0.99573 0.89799 0.94800
C 	C 	0.41116 0.02630 0.00062 0.06500
C 	C 	0.37084 0.01092 0.99915 -0.02200
C 	C 	0.58444 0.92073 0.89105 -0.01500
H 	H 	0.45577 0.15139 0.00680 0.04700
H 	H 	0.53751 0.15395 0.90698 0.04500
H 	H 	0.65731 0.04024 0.89982 0.04200
H 	H 	0.65958 0.96153 0.89552 0.05100
N 	N 	0.49906 0.05781 0.00360 -0.26500
N 	N 	0.56235 0.99788 0.89798 -0.29400
N 	N 	0.50398 0.93414 0.89252 -0.27500
N 	N 	0.43951 0.99293 0.99786 -0.29200
H 	H 	0.54835 0.84085 0.88977 0.04700
H 	H 	0.46732 0.83740 0.98978 0.04200
H 	H 	0.34550 0.94862 0.99572 0.05400
H 	H 	0.34248 0.02857 0.00027 0.04600
C 	C 	0.46276 0.08347 0.00506 0.04800
C 	C 	0.47570 0.12464 0.00626 -0.03800
C 	C 	0.51894 0.12602 0.90636 -0.03900
C 	C 	0.53393 0.08573 0.90523 0.04600
C 	C 	0.57958 0.07627 0.90496 -0.01500
C 	C 	0.58859 0.03270 0.90071 0.06200
C 	C 	0.62994 0.02092 0.89906 -0.01100
C 	C 	0.63125 0.97920 0.89657 -0.07200
C 	C 	0.59077 0.96484 0.89514 0.06000
C 	C 	0.41759 0.07140 0.00470 -0.01400
C 	C 	0.54013 0.90855 0.89099 0.05000
C 	C 	0.52819 0.86732 0.89012 -0.04000
C 	C 	0.12005 0.22693 0.92719 -0.03900
C 	C 	0.16087 0.21361 0.92677 0.05100
C 	C 	0.16811 0.16955 0.92738 -0.01400
C 	C 	0.21316 0.15815 0.92425 0.04400
C 	C 	0.22636 0.11721 0.92295 -0.03800
Ni	Ni	0.24947 0.24711 0.92182 0.95200
C 	C 	0.28415 0.15731 0.91931 0.04400
C 	C 	0.26958 0.11669 0.92055 -0.03900
C 	C 	0.16904 0.32590 0.92760 -0.01300
H 	H 	0.40616 0.20685 0.91584 0.04500
H 	H 	0.40660 0.28630 0.91587 0.04500
H 	H 	0.29114 0.40456 0.91990 0.04500
H 	H 	0.20941 0.40471 0.92412 0.04500
N 	N 	0.31061 0.24668 0.91774 -0.28100
N 	N 	0.24973 0.30956 0.92192 -0.27000
N 	N 	0.18839 0.24757 0.92584 -0.28300
N 	N 	0.24903 0.18466 0.92178 -0.27000
H 	H 	0.09253 0.28717 0.92743 0.04900
H 	H 	0.09197 0.20860 0.92732 0.04800
H 	H 	0.20664 0.09010 0.92377 0.04600
H 	H 	0.28841 0.08911 0.91957 0.04700
C 	C 	0.33761 0.21213 0.91666 0.04800
C 	C 	0.37851 0.22553 0.91613 -0.04000
C 	C 	0.37873 0.26764 0.91615 -0.03900
C 	C 	0.33796 0.28107 0.91672 0.04800
C 	C 	0.33041 0.32561 0.91626 -0.01300
C 	C 	0.28530 0.33642 0.91947 0.04400
C 	C 	0.27170 0.37723 0.92078 -0.03800
C 	C 	0.22851 0.37733 0.92320 -0.03900
C 	C 	0.21439 0.33659 0.92445 0.04400
C 	C 	0.32970 0.16747 0.91614 -0.01200
C 	C 	0.16130 0.28177 0.92687 0.05100
C 	C 	0.12032 0.26867 0.92724 -0.04000
C 	C 	0.61870 0.22845 0.91738 -0.04000
C 	C 	0.65957 0.21531 0.91781 0.05100
C 	C 	0.66708 0.17123 0.91722 -0.01300
C 	C 	0.71217 0.16022 0.92028 0.04400
C 	C 	0.72579 0.11942 0.92158 -0.03800
Ni	Ni	0.74798 0.24935 0.92259 0.95300
C 	C 	0.78311 0.16010 0.92506 0.04500
C 	C 	0.76901 0.11934 0.92389 -0.03800
C 	C 	0.66747 0.32779 0.91707 -0.01300
H 	H 	0.90492 0.20982 0.92794 0.04300
H 	H 	0.90532 0.28840 0.92790 0.04300
H 	H 	0.78982 0.40653 0.92456 0.04400
H 	H 	0.70800 0.40676 0.92049 0.04500
N 	N 	0.80900 0.24919 0.92643 -0.28300
N 	N 	0.74822 0.31168 0.92255 -0.27100
N 	N 	0.68693 0.24947 0.91874 -0.28300
N 	N 	0.74777 0.18703 0.92265 -0.27100
H 	H 	0.59100 0.28871 0.01715 0.04700
H 	H 	0.59076 0.20991 0.01719 0.04700
H 	H 	0.70638 0.09212 0.92088 0.04600
H 	H 	0.78812 0.09198 0.92480 0.04600
C 	C 	0.83613 0.21507 0.92739 0.05100
C 	C 	0.87709 0.22826 0.92777 -0.04100
C 	C 	0.87729 0.27001 0.92775 -0.04000
C 	C 	0.83644 0.28323 0.92736 0.05100
C 	C 	0.82907 0.32728 0.92801 -0.01300
C 	C 	0.78392 0.33842 0.92496 0.04400
C 	C 	0.77034 0.37924 0.92372 -0.03800
C 	C 	0.72707 0.37937 0.92136 -0.03900
C 	C 	0.71286 0.33863 0.92013 0.04400
C 	C 	0.82839 0.17097 0.92805 -0.01300
C 	C 	0.65976 0.28359 0.91774 0.05100
C 	C 	0.61884 0.27029 0.01735 -0.03900
C 	C 	0.62142 0.72802 0.97781 -0.04000
C 	C 	0.66220 0.71463 0.97747 0.05200
C 	C 	0.66948 0.67059 0.97812 -0.01400
C 	C 	0.71458 0.65936 0.97506 0.04400
C 	C 	0.72813 0.61853 0.97380 -0.03800
Ni	Ni	0.75062 0.74832 0.97268 0.95400
C 	C 	0.78561 0.65913 0.97020 0.04500
C 	C 	0.77140 0.61839 0.97144 -0.03900
C 	C 	0.67094 0.82675 0.97837 -0.01400
H 	H 	0.90751 0.70918 0.96720 0.04300
H 	H 	0.90749 0.78802 0.96724 0.04200
H 	H 	0.79235 0.90550 0.97083 0.04400
H 	H 	0.71070 0.90571 0.97497 0.04400
N 	N 	0.81153 0.74820 0.96876 -0.28300
N 	N 	0.75090 0.81056 0.97274 -0.27200
N 	N 	0.68973 0.74855 0.97658 -0.28400
N 	N 	0.75029 0.68606 0.97264 -0.27100
H 	H 	0.59419 0.78835 0.97784 0.04500
H 	H 	0.59332 0.70975 0.97786 0.04600
H 	H 	0.70863 0.59125 0.97464 0.04400
H 	H 	0.79047 0.59099 0.97056 0.04400
C 	C 	0.83870 0.71417 0.96778 0.05200
C 	C 	0.87963 0.72755 0.96737 -0.04100
C 	C 	0.87965 0.76937 0.96737 -0.04100
C 	C 	0.83877 0.78237 0.96777 0.05100
C 	C 	0.83100 0.82634 0.96711 -0.01400
C 	C 	0.78628 0.83737 0.97027 0.04700
C 	C 	0.77290 0.87822 0.97161 -0.03900
C 	C 	0.72980 0.87834 0.97403 -0.04000
C 	C 	0.71585 0.83756 0.97526 0.04700
C 	C 	0.83094 0.67004 0.96714 -0.01300
C 	C 	0.66283 0.78276 0.97758 0.05200
C 	C 	0.62184 0.76979 0.97785 -0.04100
C 	C 	0.47606 0.37049 0.90615 -0.03800
C 	C 	0.46244 0.41129 0.90494 0.04400
C 	C 	0.41727 0.42206 0.90459 -0.01200
C 	C 	0.40972 0.46652 0.90047 0.04800
C 	C 	0.36897 0.47992 0.99897 -0.04500
Ni	Ni	0.49832 0.50040 0.89769 0.95300
C 	C 	0.41011 0.53536 0.99492 0.04800
C 	C 	0.36920 0.52202 0.99643 -0.03800
C 	C 	0.57883 0.42175 0.90481 -0.01300
H 	H 	0.45942 0.65822 0.98858 0.04600
H 	H 	0.54121 0.65720 0.98855 0.04400
H 	H 	0.65597 0.53890 0.99555 0.04500
H 	H 	0.65538 0.46032 0.89997 0.04600
N 	N 	0.49880 0.56271 0.99194 -0.27100
N 	N 	0.55949 0.49993 0.89770 -0.28200
N 	N 	0.49806 0.43812 0.90344 -0.27100
N 	N 	0.43712 0.50086 0.99769 -0.28300
H 	H 	0.53838 0.34301 0.90683 0.04500
H 	H 	0.45662 0.34318 0.90671 0.04500
H 	H 	0.34107 0.46125 0.89996 0.04500
H 	H 	0.34154 0.54071 0.99546 0.04400
C 	C 	0.46364 0.59004 0.99042 0.04400
C 	C 	0.47825 0.63064 0.98920 -0.03900
C 	C 	0.52149 0.63010 0.98914 -0.03800
C 	C 	0.53472 0.58918 0.99030 0.04300
C 	C 	0.57981 0.57780 0.99058 -0.01300
C 	C 	0.58707 0.53384 0.99487 0.05000
C 	C 	0.62787 0.52055 0.89647 -0.03900
C 	C 	0.62759 0.47883 0.89900 -0.04000
C 	C 	0.58660 0.46579 0.90055 0.05200
C 	C 	0.41805 0.57993 0.99079 -0.01200
C 	C 	0.53343 0.41111 0.90507 0.04400
C 	C 	0.51928 0.37038 0.90622 -0.03900
C 	C 	0.97881 0.62791 0.95640 -0.08400
C 	C 	0.96469 0.58718 0.95520 0.02900
C 	C 	0.91937 0.57635 0.95482 -0.00900
C 	C 	0.91160 0.53235 0.95048 0.04800
C 	C 	0.87063 0.51923 0.94889 -0.03800
Ni	Ni	0.99986 0.49814 0.94759 0.93800
C 	C 	0.91129 0.46432 0.94472 0.05300
C 	C 	0.87043 0.47750 0.94633 -0.04100
C 	C 	0.08085 0.57611 0.95494 -0.01000
H 	H 	0.95800 0.34119 0.93813 0.05200
H 	H 	0.03983 0.34096 0.93807 0.03800
H 	H 	0.15696 0.45878 0.94530 0.04600
H 	H 	0.15720 0.53758 0.94999 0.04500
N 	N 	0.99961 0.43599 0.94157 -0.29300
N 	N 	0.06100 0.49802 0.94760 -0.27400
N 	N 	0.00007 0.56028 0.95360 -0.24400
N 	N 	0.93874 0.49830 0.94759 -0.28500
H 	H 	0.04143 0.65513 0.95693 0.03700
H 	H 	0.95969 0.65527 0.95696 0.05100
H 	H 	0.84281 0.53768 0.94987 0.04500
H 	H 	0.84240 0.45909 0.94537 0.04600
C 	C 	0.96386 0.40927 0.93996 0.05500
C 	C 	0.97748 0.36847 0.93872 -0.08900
C 	C 	0.02076 0.36835 0.93868 0.00600
C 	C 	0.03500 0.40907 0.93990 0.06000
C 	C 	0.08043 0.41986 0.94024 -0.01600
C 	C 	0.08817 0.46396 0.94466 0.05600
C 	C 	0.12912 0.47722 0.94629 -0.04200
C 	C 	0.12925 0.51902 0.94895 -0.03900
C 	C 	0.08837 0.53211 0.95055 0.05000
C 	C 	0.91867 0.42037 0.94037 -0.01600
C 	C 	0.03570 0.58706 0.95524 0.03400
C 	C 	0.02204 0.62783 0.95641 0.01200
N 	N 	0.11936 0.10355 0.93605 -0.06100
N 	N 	0.12726 0.14268 0.93076 -0.06000
N 	N 	0.11682 0.89320 0.95875 -0.06000
N 	N 	0.12316 0.85385 0.96386 -0.06100
N 	N 	0.39401 0.87517 0.98727 -0.06100
N 	N 	0.35367 0.87257 0.98338 -0.06200
N 	N 	0.36979 0.13882 0.91270 -0.06000
N 	N 	0.37684 0.09907 0.90844 -0.06100
N 	N 	0.87694 0.89354 0.95845 -0.05900
N 	N 	0.87085 0.85416 0.96356 -0.06000
N 	N 	0.87631 0.10444 0.93634 -0.06000
N 	N 	0.86888 0.14370 0.93136 -0.06000
N 	N 	0.62659 0.14377 0.91392 -0.06000
N 	N 	0.61956 0.10444 0.90883 -0.06100
N 	N 	0.62482 0.89387 0.98706 -0.06000
N 	N 	0.63119 0.85451 0.98200 -0.06100
N 	N 	0.62070 0.60459 0.98672 -0.06000
N 	N 	0.62863 0.64371 0.98146 -0.06000
N 	N 	0.62691 0.35512 0.91369 -0.06000
N 	N 	0.61937 0.39441 0.90868 -0.06000
N 	N 	0.86990 0.35428 0.93132 -0.06000
N 	N 	0.87782 0.39344 0.93652 -0.06000
N 	N 	0.87145 0.64281 0.96377 -0.06000
N 	N 	0.87886 0.60356 0.95869 -0.06000
N 	N 	0.37712 0.39372 0.90840 -0.06000
N 	N 	0.37054 0.35402 0.91282 -0.06000
N 	N 	0.37089 0.64828 0.98281 -0.06000
N 	N 	0.37793 0.60852 0.98695 -0.06100
N 	N 	0.12840 0.64282 0.96430 -0.06000
N 	N 	0.12137 0.60351 0.95890 -0.06100
N 	N 	0.12853 0.35331 0.93109 -0.06100
N 	N 	0.12101 0.39260 0.93624 -0.06100
