data_crystal

_cell_length_a 13.41910
_cell_length_b 18.06690
_cell_length_c 20.97460
_cell_angle_alpha 90.00000
_cell_angle_beta  99.65900
_cell_angle_gamma 90.00000

_symmetry_space_group_name_	'P 1'
_symmetry_space_group_name_H-M	'P 1'

loop_
_symmetry_equiv_pos_as_xyz
  x,y,z

loop_
_atom_site_label
_atom_site_type_symbol
_atom_site_fract_x
_atom_site_fract_y
_atom_site_fract_z
_atom_site_charge
Mg	Mg	0.74024 0.25900 0.69118 1.45600
O 	O 	0.50251 0.32882 0.67868 -0.49900
O 	O 	0.65804 0.34820 0.65879 -0.55700
O 	O 	0.51720 0.16379 0.68339 -0.49200
O 	O 	0.64260 0.18988 0.63015 -0.55900
O 	O 	0.80483 0.30259 0.78278 -0.49800
O 	O 	0.66002 0.24492 0.77670 -0.60000
C 	C 	0.56380 0.35866 0.64943 0.44800
C 	C 	0.52450 0.41103 0.59449 -0.12000
C 	C 	0.41830 0.41841 0.57328 0.02500
H 	H 	0.37380 0.39230 0.59440 0.03500
C 	C 	0.58930 0.45059 0.56321 -0.02600
H 	H 	0.65870 0.44670 0.57710 0.03800
C 	C 	0.55250 0.49684 0.51062 0.01500
C 	C 	0.38110 0.46300 0.52275 -0.10300
H 	H 	0.31160 0.46720 0.50990 0.06200
C 	C 	0.56900 0.15324 0.64006 0.43800
C 	C 	0.53670 0.08814 0.59482 -0.11800
C 	C 	0.46380 0.03690 0.60972 0.02100
H 	H 	0.43980 0.04080 0.64870 0.02700
C 	C 	0.57280 0.08150 0.53784 -0.02500
H 	H 	0.62170 0.11450 0.52860 0.03400
C 	C 	0.53680 0.02510 0.49235 0.01200
C 	C 	0.42870 0.98230 0.56759 -0.09700
H 	H 	0.38120 0.94900 0.57820 0.04600
C 	C 	0.73590 0.27566 0.80973 0.36400
C 	C 	0.74880 0.27704 0.88201 -0.09900
C 	C 	0.82060 0.32607 0.91682 0.02200
H 	H 	0.85630 0.35870 0.89480 0.03600
C 	C 	0.83710 0.32507 0.98254 -0.10300
H 	H 	0.88310 0.35810 0.00520 0.07900
C 	C 	0.69650 0.22871 0.91370 -0.03500
H 	H 	0.64860 0.19760 0.89020 0.05400
C 	C 	0.78560 0.27472 0.01723 0.03300
Mg	Mg	0.24024 0.75900 0.69118 1.45400
O 	O 	0.00251 0.82882 0.67868 -0.53400
O 	O 	0.15804 0.84820 0.65879 -0.57300
O 	O 	0.01720 0.66379 0.68339 -0.52700
O 	O 	0.14260 0.68988 0.63015 -0.57600
O 	O 	0.30483 0.80259 0.78278 -0.50800
O 	O 	0.16002 0.74492 0.77670 -0.61100
C 	C 	0.06380 0.85866 0.64943 0.49100
C 	C 	0.02450 0.91103 0.59449 -0.25600
C 	C 	0.91830 0.91841 0.57328 0.19500
H 	H 	0.87380 0.89230 0.59440 -0.01400
C 	C 	0.08930 0.95059 0.56321 0.09900
H 	H 	0.15870 0.94670 0.57710 -0.00600
C 	C 	0.05250 0.99684 0.51062 -0.15500
C 	C 	0.88110 0.96300 0.52275 -0.24600
H 	H 	0.81160 0.96720 0.50990 0.11400
C 	C 	0.06900 0.65324 0.64006 0.48000
C 	C 	0.03670 0.58814 0.59482 -0.25500
C 	C 	0.96380 0.53690 0.60972 0.19200
H 	H 	0.93980 0.54080 0.64870 -0.02000
C 	C 	0.07280 0.58150 0.53784 0.09600
H 	H 	0.12170 0.61450 0.52860 -0.01100
C 	C 	0.03680 0.52510 0.49235 -0.15400
C 	C 	0.92870 0.48230 0.56759 -0.23900
H 	H 	0.88120 0.44900 0.57820 0.09800
C 	C 	0.23590 0.77566 0.80973 0.36500
C 	C 	0.24880 0.77704 0.88201 -0.11200
C 	C 	0.32060 0.82607 0.91682 0.02400
H 	H 	0.35630 0.85870 0.89480 0.02600
C 	C 	0.33710 0.82507 0.98254 -0.11000
H 	H 	0.38310 0.85810 0.00520 0.07200
C 	C 	0.19650 0.72871 0.91370 -0.03100
H 	H 	0.14860 0.69760 0.89020 0.04200
C 	C 	0.28560 0.77472 0.01723 0.03100
Mg	Mg	0.25976 0.25900 0.80882 1.45400
O 	O 	0.49749 0.32882 0.82132 -0.50000
O 	O 	0.34196 0.34820 0.84121 -0.56200
O 	O 	0.48280 0.16379 0.81661 -0.49300
O 	O 	0.35740 0.18988 0.86985 -0.56500
O 	O 	0.19517 0.30259 0.71722 -0.51500
O 	O 	0.33998 0.24492 0.72330 -0.60300
C 	C 	0.43620 0.35866 0.85057 0.44900
C 	C 	0.47550 0.41103 0.90551 -0.12200
C 	C 	0.58170 0.41841 0.92672 0.02700
H 	H 	0.62620 0.39230 0.90560 0.03500
C 	C 	0.41070 0.45059 0.93679 -0.02500
H 	H 	0.34130 0.44670 0.92290 0.03800
C 	C 	0.44750 0.49684 0.98938 0.01300
C 	C 	0.61890 0.46300 0.97725 -0.10500
H 	H 	0.68840 0.46720 0.99010 0.06400
C 	C 	0.43100 0.15324 0.85994 0.43800
C 	C 	0.46330 0.08814 0.90518 -0.11800
C 	C 	0.53620 0.03690 0.89028 0.02000
H 	H 	0.56020 0.04080 0.85130 0.02800
C 	C 	0.42720 0.08150 0.96216 -0.02600
H 	H 	0.37830 0.11450 0.97140 0.03300
C 	C 	0.46320 0.02510 0.00765 0.01400
C 	C 	0.57130 0.98230 0.93241 -0.09700
H 	H 	0.61880 0.94900 0.92180 0.04400
C 	C 	0.26410 0.27566 0.69027 0.36400
C 	C 	0.25120 0.27704 0.61799 -0.10300
C 	C 	0.17940 0.32607 0.58318 0.01500
H 	H 	0.14370 0.35870 0.60520 0.02200
C 	C 	0.16290 0.32507 0.51746 -0.10300
H 	H 	0.11690 0.35810 0.49480 0.06000
C 	C 	0.30350 0.22871 0.58630 -0.04000
H 	H 	0.35140 0.19760 0.60980 0.05400
C 	C 	0.21440 0.27472 0.48277 0.01800
Mg	Mg	0.75976 0.75900 0.80882 1.45400
O 	O 	0.99749 0.82882 0.82132 -0.46400
O 	O 	0.84196 0.84820 0.84121 -0.54600
O 	O 	0.98280 0.66379 0.81661 -0.45800
O 	O 	0.85740 0.68988 0.86985 -0.54700
O 	O 	0.69517 0.80259 0.71722 -0.50500
O 	O 	0.83998 0.74492 0.72330 -0.59000
C 	C 	0.93620 0.85866 0.85057 0.40500
C 	C 	0.97550 0.91103 0.90551 0.01500
C 	C 	0.08170 0.91841 0.92672 -0.14300
H 	H 	0.12620 0.89230 0.90560 0.08400
C 	C 	0.91070 0.95059 0.93679 -0.15100
H 	H 	0.84130 0.94670 0.92290 0.08200
C 	C 	0.94750 0.99684 0.98938 0.18500
C 	C 	0.11890 0.96300 0.97725 0.03700
H 	H 	0.18840 0.96720 0.99010 0.01200
C 	C 	0.93100 0.65324 0.85994 0.39600
C 	C 	0.96330 0.58814 0.90518 0.01800
C 	C 	0.03620 0.53690 0.89028 -0.14900
H 	H 	0.06020 0.54080 0.85130 0.07300
C 	C 	0.92720 0.58150 0.96216 -0.14300
H 	H 	0.87830 0.61450 0.97140 0.07600
C 	C 	0.96320 0.52510 0.00765 0.17700
C 	C 	0.07130 0.48230 0.93241 0.04300
H 	H 	0.11880 0.44900 0.92180 -0.00800
C 	C 	0.76410 0.77566 0.69027 0.36300
C 	C 	0.75120 0.77704 0.61799 -0.09100
C 	C 	0.67940 0.82607 0.58318 0.01600
H 	H 	0.64370 0.85870 0.60520 0.03100
C 	C 	0.66290 0.82507 0.51746 -0.10000
H 	H 	0.61690 0.85810 0.49480 0.06800
C 	C 	0.80350 0.72871 0.58630 -0.04200
H 	H 	0.85140 0.69760 0.60980 0.06500
C 	C 	0.71440 0.77472 0.48277 0.02300
Mg	Mg	0.25976 0.74100 0.30882 1.45400
O 	O 	0.49749 0.67118 0.32132 -0.50000
O 	O 	0.34196 0.65180 0.34121 -0.56200
O 	O 	0.48280 0.83621 0.31661 -0.49400
O 	O 	0.35740 0.81012 0.36985 -0.56500
O 	O 	0.19517 0.69741 0.21722 -0.51500
O 	O 	0.33998 0.75508 0.22330 -0.60300
C 	C 	0.43620 0.64134 0.35057 0.44900
C 	C 	0.47550 0.58897 0.40551 -0.12100
C 	C 	0.58170 0.58159 0.42672 0.02700
H 	H 	0.62620 0.60770 0.40560 0.03500
C 	C 	0.41070 0.54941 0.43679 -0.02500
H 	H 	0.34130 0.55330 0.42290 0.03800
C 	C 	0.44750 0.50316 0.48938 0.01400
C 	C 	0.61890 0.53700 0.47725 -0.10500
H 	H 	0.68840 0.53280 0.49010 0.06300
C 	C 	0.43100 0.84676 0.35994 0.43800
C 	C 	0.46330 0.91186 0.40518 -0.12000
C 	C 	0.53620 0.96310 0.39028 0.02200
H 	H 	0.56020 0.95920 0.35130 0.02700
C 	C 	0.42720 0.91850 0.46216 -0.02400
H 	H 	0.37830 0.88550 0.47140 0.03200
C 	C 	0.46320 0.97490 0.50765 0.01300
C 	C 	0.57130 0.01770 0.43241 -0.09900
H 	H 	0.61880 0.05100 0.42180 0.04400
C 	C 	0.26410 0.72434 0.19027 0.36300
C 	C 	0.25120 0.72296 0.11799 -0.10100
C 	C 	0.17940 0.67393 0.08318 0.01200
H 	H 	0.14370 0.64130 0.10520 0.02400
C 	C 	0.16290 0.67493 0.01746 -0.09800
H 	H 	0.11690 0.64190 0.99480 0.05800
C 	C 	0.30350 0.77129 0.08630 -0.04200
H 	H 	0.35140 0.80240 0.10980 0.05500
C 	C 	0.21440 0.72528 0.98277 0.01400
Mg	Mg	0.75976 0.24100 0.30882 1.45400
O 	O 	0.99749 0.17118 0.32132 -0.46500
O 	O 	0.84196 0.15180 0.34121 -0.54700
O 	O 	0.98280 0.33621 0.31661 -0.45900
O 	O 	0.85740 0.31012 0.36985 -0.54800
O 	O 	0.69517 0.19741 0.21722 -0.50500
O 	O 	0.83998 0.25508 0.22330 -0.59000
C 	C 	0.93620 0.14134 0.35057 0.40500
C 	C 	0.97550 0.08897 0.40551 0.01500
C 	C 	0.08170 0.08159 0.42672 -0.14200
H 	H 	0.12620 0.10770 0.40560 0.08400
C 	C 	0.91070 0.04941 0.43679 -0.15100
H 	H 	0.84130 0.05330 0.42290 0.08200
C 	C 	0.94750 0.00316 0.48938 0.18400
C 	C 	0.11890 0.03700 0.47725 0.03800
H 	H 	0.18840 0.03280 0.49010 0.01200
C 	C 	0.93100 0.34676 0.35994 0.39600
C 	C 	0.96330 0.41186 0.40518 0.01700
C 	C 	0.03620 0.46310 0.39028 -0.14800
H 	H 	0.06020 0.45920 0.35130 0.07300
C 	C 	0.92720 0.41850 0.46216 -0.14500
H 	H 	0.87830 0.38550 0.47140 0.07700
C 	C 	0.96320 0.47490 0.50765 0.17900
C 	C 	0.07130 0.51770 0.43241 0.04300
H 	H 	0.11880 0.55100 0.42180 -0.00700
C 	C 	0.76410 0.22434 0.19027 0.36300
C 	C 	0.75120 0.22296 0.11799 -0.09100
C 	C 	0.67940 0.17393 0.08318 0.01500
H 	H 	0.64370 0.14130 0.10520 0.03100
C 	C 	0.66290 0.17493 0.01746 -0.09900
H 	H 	0.61690 0.14190 0.99480 0.06800
C 	C 	0.80350 0.27129 0.08630 -0.04100
H 	H 	0.85140 0.30240 0.10980 0.06500
C 	C 	0.71440 0.22528 0.98277 0.02300
Mg	Mg	0.74024 0.74100 0.19118 1.45500
O 	O 	0.50251 0.67118 0.17868 -0.50000
O 	O 	0.65804 0.65180 0.15879 -0.55800
O 	O 	0.51720 0.83621 0.18339 -0.49300
O 	O 	0.64260 0.81012 0.13015 -0.55900
O 	O 	0.80483 0.69741 0.28278 -0.49800
O 	O 	0.66002 0.75508 0.27670 -0.60000
C 	C 	0.56380 0.64134 0.14943 0.44800
C 	C 	0.52450 0.58897 0.09449 -0.11900
C 	C 	0.41830 0.58159 0.07328 0.02500
H 	H 	0.37380 0.60770 0.09440 0.03500
C 	C 	0.58930 0.54941 0.06321 -0.02700
H 	H 	0.65870 0.55330 0.07710 0.03900
C 	C 	0.55250 0.50316 0.01062 0.01600
C 	C 	0.38110 0.53700 0.02275 -0.10200
H 	H 	0.31160 0.53280 0.00990 0.06200
C 	C 	0.56900 0.84676 0.14006 0.43800
C 	C 	0.53670 0.91186 0.09482 -0.11800
C 	C 	0.46380 0.96310 0.10972 0.02200
H 	H 	0.43980 0.95920 0.14870 0.02700
C 	C 	0.57280 0.91850 0.03784 -0.02500
H 	H 	0.62170 0.88550 0.02860 0.03400
C 	C 	0.53680 0.97490 0.99235 0.01200
C 	C 	0.42870 0.01770 0.06759 -0.09800
H 	H 	0.38120 0.05100 0.07820 0.04600
C 	C 	0.73590 0.72434 0.30973 0.36400
C 	C 	0.74880 0.72296 0.38201 -0.09900
C 	C 	0.82060 0.67393 0.41682 0.02300
H 	H 	0.85630 0.64130 0.39480 0.03500
C 	C 	0.83710 0.67493 0.48254 -0.10500
H 	H 	0.88310 0.64190 0.50520 0.08000
C 	C 	0.69650 0.77129 0.41370 -0.03500
H 	H 	0.64860 0.80240 0.39020 0.05400
C 	C 	0.78560 0.72528 0.51723 0.03400
Mg	Mg	0.24024 0.24100 0.19118 1.45400
O 	O 	0.00251 0.17118 0.17868 -0.53400
O 	O 	0.15804 0.15180 0.15879 -0.57300
O 	O 	0.01720 0.33621 0.18339 -0.52600
O 	O 	0.14260 0.31012 0.13015 -0.57600
O 	O 	0.30483 0.19741 0.28278 -0.50800
O 	O 	0.16002 0.25508 0.27670 -0.61100
C 	C 	0.06380 0.14134 0.14943 0.49100
C 	C 	0.02450 0.08897 0.09449 -0.25400
C 	C 	0.91830 0.08159 0.07328 0.19300
H 	H 	0.87380 0.10770 0.09440 -0.01400
C 	C 	0.08930 0.04941 0.06321 0.09800
H 	H 	0.15870 0.05330 0.07710 -0.00500
C 	C 	0.05250 0.00316 0.01062 -0.15300
C 	C 	0.88110 0.03700 0.02275 -0.24700
H 	H 	0.81160 0.03280 0.00990 0.11400
C 	C 	0.06900 0.34676 0.14006 0.48000
C 	C 	0.03670 0.41186 0.09482 -0.25300
C 	C 	0.96380 0.46310 0.10972 0.18900
H 	H 	0.93980 0.45920 0.14870 -0.01900
C 	C 	0.07280 0.41850 0.03784 0.09600
H 	H 	0.12170 0.38550 0.02860 -0.01100
C 	C 	0.03680 0.47490 0.99235 -0.15400
C 	C 	0.92870 0.51770 0.06759 -0.23800
H 	H 	0.88120 0.55100 0.07820 0.09700
C 	C 	0.23590 0.22434 0.30973 0.36400
C 	C 	0.24880 0.22296 0.38201 -0.11000
C 	C 	0.32060 0.17393 0.41682 0.02200
H 	H 	0.35630 0.14130 0.39480 0.02700
C 	C 	0.33710 0.17493 0.48254 -0.10700
H 	H 	0.38310 0.14190 0.50520 0.07200
C 	C 	0.19650 0.27129 0.41370 -0.03400
H 	H 	0.14860 0.30240 0.39020 0.04300
C 	C 	0.28560 0.22528 0.51723 0.02800
Mg	Mg	0.50000 0.24754 0.75000 1.47600
Mg	Mg	0.00000 0.74754 0.75000 1.47300
Mg	Mg	0.50000 0.75246 0.25000 1.47600
Mg	Mg	0.00000 0.25246 0.25000 1.47300
