data_crystal

_audit_creation_method 'AiiDA-DDEC plugin'

_cell_length_a        17.51654
_cell_length_b        17.47957
_cell_length_c        17.52985

_cell_angle_alpha     65.67259
_cell_angle_beta     65.41899
_cell_angle_gamma     65.25387

_symmetry_space_group_name_Hall 'P 1'
_symmetry_space_group_name_H-M  'P 1'

loop_
_symmetry_equiv_pos_as_xyz
 'x,y,z'

loop_
_atom_site_label
_atom_site_type_symbol
_atom_site_fract_x
_atom_site_fract_y
_atom_site_fract_z
_atom_site_charge
Cu         Cu      0.56670   0.00043   0.00401   0.91932
Cu         Cu      0.00035   0.56580   0.00640   0.92133
Cu         Cu      0.00710   0.00493   0.56776   0.91991
Cu         Cu      0.99357   0.43214  -0.00098   0.92076
Cu         Cu      0.43375   0.99339   0.99619   0.92067
Cu         Cu     -0.00041   0.99662   0.43526   0.92045
H          H       0.49724   0.72428   0.01562   0.14299
H          H       0.00592   0.50386   0.73236   0.14352
H          H       0.73003   0.02586   0.49676   0.14330
H          H       0.27294   0.50126   0.97381   0.14389
H          H       0.50109   0.99309   0.26823   0.14414
H          H       0.97927   0.27714   0.50289   0.13952
H          H       0.50239   0.27220   0.97083   0.14306
H          H       0.97404   0.50505   0.27524   0.14359
H          H       0.27359   0.99227   0.49769   0.14300
H          H       0.72724   0.49538   0.01554   0.14325
H          H       0.50130   0.01982   0.72470   0.14354
H          H       0.00848   0.73228   0.50483   0.14339
H          H       0.73072   0.73075   0.03620   0.14266
H          H       0.02749   0.73687   0.73988   0.14253
H          H       0.73975   0.02116   0.74006   0.14248
H          H       0.26165   0.26208   0.96906   0.14212
H          H       0.26645   0.97266   0.26399   0.14275
H          H       0.97695   0.26176   0.26510   0.14198
C          C       0.60925   0.73636   0.02673  -0.03370
C          C       0.56417   0.69091   0.01968  -0.11400
C          C       0.56663   0.83129   0.02355   0.58462
C          C       0.01692   0.61575   0.74504  -0.03152
C          C       0.00995   0.57064   0.69947  -0.11617
C          C       0.01411   0.57259   0.83923   0.58381
C          C       0.74387   0.02445   0.61368  -0.03008
C          C       0.69733   0.02509   0.56496  -0.11618
C          C       0.83840   0.02185   0.57123   0.58479
C          C       0.25844   0.38660   0.97031  -0.03053
C          C       0.30567   0.43368   0.97134  -0.11847
C          C       0.16285   0.42911   0.97678   0.58693
C          C       0.38843   0.98188   0.25730  -0.03241
C          C       0.43426   0.98922   0.30178  -0.11619
C          C       0.43146   0.98218   0.16353   0.58754
C          C       0.97694   0.26065   0.38888  -0.03281
C          C       0.97695   0.30890   0.43566  -0.11262
C          C       0.98215   0.16560   0.43141   0.58859
C          C       0.38694   0.25831   0.96867  -0.03166
C          C       0.43456   0.30508   0.96957  -0.11474
C          C       0.42949   0.16282   0.97414   0.58600
C          C       0.97478   0.38802   0.26109  -0.03055
C          C       0.97409   0.43699   0.30767  -0.11568
C          C       0.97911   0.42910   0.16642   0.58675
C          C       0.26136   0.98087   0.38601  -0.03250
C          C       0.30664   0.98848   0.43081  -0.11448
C          C       0.16765   0.98102   0.43027   0.58599
C          C       0.73734   0.60799   0.02792  -0.03158
C          C       0.69320   0.56229   0.01988  -0.11595
C          C       0.83154   0.56551   0.02637   0.58416
C          C       0.61597   0.02053   0.74144  -0.03152
C          C       0.56895   0.02149   0.69306  -0.11468
C          C       0.57296   0.01472   0.83643   0.58420
C          C       0.01994   0.74325   0.61721  -0.03174
C          C       0.01190   0.69883   0.57162  -0.11592
C          C       0.02123   0.83672   0.57338   0.58607
C          C       0.56124   0.55831   0.00588  -0.07503
C          C       0.52257   0.52003   0.99605  -0.03068
C          C       0.69566   0.69496   0.03158  -0.08599
C          C       0.60582   0.60324   0.01585   0.11960
C          C       0.99813   0.56739   0.56631  -0.07520
C          C       0.99020   0.52886   0.52642  -0.02992
C          C       0.02248   0.70192   0.70408  -0.08779
C          C       0.00706   0.61186   0.61216   0.11973
C          C       0.56304   0.02116   0.55592  -0.07254
C          C       0.52277   0.01647   0.51575  -0.03146
C          C       0.70340   0.02236   0.70203  -0.08897
C          C       0.60929   0.02349   0.60411   0.11836
C          C       0.44071   0.43917   0.97721  -0.07581
C          C       0.47999   0.47778   0.98575  -0.02893
C          C       0.29890   0.29887   0.96853  -0.08832
C          C       0.39430   0.39336   0.97130   0.12030
C          C       0.43920   0.00189   0.43376  -0.07419
C          C       0.47905   0.00962   0.47232  -0.03207
C          C       0.30197   0.97753   0.29914  -0.08816
C          C       0.39373   0.99281   0.38915   0.12065
C          C       0.97812   0.44557   0.44214  -0.07563
C          C       0.98322   0.48570   0.48233  -0.02828
C          C       0.97570   0.29993   0.30155  -0.08802
C          C       0.97535   0.39781   0.39555   0.11870
O          O       0.61153   0.87051   0.02782  -0.53283
O          O       0.48914   0.86624   0.01466  -0.54177
O          O       0.01646   0.61790   0.87951  -0.52968
O          O       0.00776   0.49430   0.87266  -0.54648
O          O       0.87866   0.02271   0.61720  -0.53182
O          O       0.87198   0.01718   0.49231  -0.54421
O          O       0.12217   0.38366   0.97560  -0.53384
O          O       0.12876   0.50705   0.98490  -0.54448
O          O       0.38675   0.97747   0.12444  -0.53859
O          O       0.50973   0.98871   0.12931  -0.53986
O          O       0.98187   0.12461   0.38562  -0.53285
O          O       0.98781   0.13248   0.50978  -0.54459
O          O       0.38301   0.12143   0.97596  -0.53246
O          O       0.50846   0.12952   0.97885  -0.54535
O          O       0.97996   0.38194   0.12619  -0.53196
O          O       0.98335   0.50817   0.13266  -0.54503
O          O       0.12749   0.97810   0.38544  -0.53217
O          O       0.13442   0.98599   0.50907  -0.54453
O          O       0.87137   0.61249   0.02619  -0.53365
O          O       0.86569   0.48586   0.02296  -0.54144
O          O       0.61922   0.01264   0.87818  -0.53167
O          O       0.49378   0.01111   0.86878  -0.54214
O          O       0.02468   0.87678   0.61818  -0.53144
O          O       0.01694   0.86971   0.49451  -0.54541

