data_crystal

_cell_length_a 33.10810
_cell_length_b 31.92710
_cell_length_c 24.32660
_cell_angle_alpha 93.92500
_cell_angle_beta  61.17600
_cell_angle_gamma 90.79500

_symmetry_space_group_name_	'P 1'
_symmetry_space_group_name_H-M	'P 1'

loop_
_symmetry_equiv_pos_as_xyz
  x,y,z

loop_
_atom_site_label
_atom_site_type_symbol
_atom_site_fract_x
_atom_site_fract_y
_atom_site_fract_z
_atom_site_charge
C 	C 	0.10844 0.24059 0.45410 0.02400
Mn	Mn	0.07018 0.15430 0.49665 1.31500
O 	O 	0.11675 0.18720 0.14524 -0.38100
O 	O 	0.16825 0.15659 0.51581 -0.37800
O 	O 	0.07190 0.16654 0.57469 -0.48800
Mn	Mn	0.11486 0.13829 0.09349 1.38100
O 	O 	0.59698 0.22749 0.57095 -0.15500
Mn	Mn	0.14009 0.59444 0.19436 1.31100
O 	O 	0.11160 0.15088 0.22918 -0.44500
O 	O 	0.58193 0.57100 0.20590 -0.46100
O 	O 	0.55821 0.62250 0.16725 -0.42200
C 	C 	0.17252 0.15536 0.45872 0.30500
H 	H 	0.39578 0.66395 0.66296 0.03200
O 	O 	0.11489 0.58541 0.54870 -0.44400
O 	O 	0.06694 0.59421 0.50653 -0.47600
H 	H 	0.48044 0.68767 0.63559 0.03100
O 	O 	0.15814 0.60936 0.11061 -0.48400
H 	H 	0.48781 0.11847 0.47772 -0.01000
O 	O 	0.22804 0.61719 0.04985 -0.11700
H 	H 	0.02093 0.20715 0.44682 -0.01200
H 	H 	0.13245 0.28664 0.38326 0.02500
H 	H 	0.13951 0.23566 0.45712 0.03500
C 	C 	0.10893 0.18591 0.20399 0.29800
C 	C 	0.27034 0.11298 0.18091 0.01400
C 	C 	0.24337 0.09962 0.15458 0.02400
C 	C 	0.20092 0.63493 0.24130 0.08000
H 	H 	0.30596 0.10416 0.16295 0.03200
C 	C 	0.16488 0.50503 0.19480 0.07900
H 	H 	0.16958 0.64550 0.28297 -0.01400
C 	C 	0.68492 0.51921 0.10026 0.02200
H 	H 	0.25413 0.07761 0.11398 0.03300
C 	C 	0.69056 0.47656 0.10092 0.01800
H 	H 	0.14847 0.50829 0.24568 -0.01700
H 	H 	0.69940 0.45325 0.06216 0.04100
H 	H 	0.68884 0.53544 0.06046 0.05100
C 	C 	0.54931 0.59047 0.20150 0.33200
C 	C 	0.09118 0.57035 0.52199 0.40400
N 	N 	0.42945 0.13654 0.56760 -0.09500
N 	N 	0.50027 0.15641 0.54405 -0.25000
N 	N 	0.07175 0.21523 0.47619 -0.24600
N 	N 	0.06695 0.25786 0.40997 -0.13700
N 	N 	0.56620 0.20353 0.59309 0.02900
C 	C 	0.42683 0.65868 0.61824 0.00700
C 	C 	0.47082 0.67105 0.60362 0.02400
C 	C 	0.47408 0.13564 0.52318 0.07100
N 	N 	0.19989 0.11426 0.19204 -0.25000
N 	N 	0.66873 0.53676 0.15934 -0.25200
N 	N 	0.24352 0.63458 0.23642 -0.13500
N 	N 	0.67829 0.46812 0.16031 -0.14000
N 	N 	0.19250 0.63037 0.09277 0.01600
O 	O 	0.13736 0.15049 0.44736 -0.45300
C 	C 	0.04708 0.22690 0.44890 0.07000
C 	C 	0.10483 0.26747 0.41493 0.01000
C 	C 	0.18073 0.37526 0.24224 0.11900
C 	C 	0.19654 0.40796 0.20159 -0.12900
C 	C 	0.16659 0.42825 0.18624 0.12100
C 	C 	0.12163 0.41408 0.20759 -0.11400
C 	C 	0.10528 0.38095 0.24732 0.06800
C 	C 	0.05468 0.36999 0.27692 0.00000
O 	O 	0.04710 0.33088 0.25234 -0.20100
C 	C 	0.05927 0.29607 0.27313 0.16400
C 	C 	0.07849 0.26098 0.22988 -0.08300
C 	C 	0.09205 0.22454 0.24673 -0.01700
C 	C 	0.08740 0.22425 0.30697 -0.07100
C 	C 	0.06719 0.25829 0.35111 0.10300
C 	C 	0.05101 0.29320 0.33560 -0.14300
C 	C 	0.13513 0.36199 0.26478 -0.11300
N 	N 	0.20941 0.35802 0.26541 -0.15000
C 	C 	0.22507 0.38995 0.29735 -0.04800
C 	C 	0.18663 0.42025 0.34237 0.02500
C 	C 	0.18779 0.46261 0.32942 -0.04700
C 	C 	0.15156 0.49026 0.36929 -0.03700
C 	C 	0.11343 0.47604 0.42263 0.01200
C 	C 	0.07685 0.50706 0.46836 -0.02100
N 	N 	0.09309 0.52818 0.50920 -0.20200
C 	C 	0.11239 0.43378 0.43599 -0.04100
C 	C 	0.14863 0.40604 0.39597 -0.04500
H 	H 	0.23096 0.41975 0.18563 0.07400
H 	H 	0.59853 0.43101 0.19662 0.06700
H 	H 	0.03595 0.39398 0.26627 0.04100
H 	H 	0.03792 0.37363 0.32888 0.03000
H 	H 	0.08260 0.26239 0.18315 0.09600
H 	H 	0.09953 0.19745 0.32041 0.04700
H 	H 	0.03379 0.31792 0.37208 0.07500
H 	H 	0.12270 0.33859 0.29877 0.06400
H 	H 	0.19323 0.33369 0.29482 0.07900
H 	H 	0.25463 0.40684 0.26148 0.04500
H 	H 	0.23830 0.37357 0.32457 0.04400
H 	H 	0.21666 0.47427 0.28823 0.04000
H 	H 	0.15346 0.52293 0.35889 0.03200
H 	H 	0.04452 0.49051 0.49787 0.03800
H 	H 	0.06892 0.52979 0.44204 0.03600
H 	H 	0.11010 0.50977 0.52608 0.10200
H 	H 	0.08374 0.42238 0.47766 0.04100
H 	H 	0.14704 0.37348 0.40668 0.04100
C 	C 	0.44603 0.52159 0.28824 0.07800
C 	C 	0.49158 0.53545 0.25560 -0.04200
C 	C 	0.50080 0.57678 0.23733 -0.06200
C 	C 	0.46347 0.10454 0.25246 -0.02800
C 	C 	0.41744 0.59144 0.28583 0.02700
C 	C 	0.37813 0.62163 0.29874 0.01500
O 	O 	0.33449 0.60586 0.34161 -0.21200
C 	C 	0.29792 0.62668 0.34106 0.16000
C 	C 	0.29359 0.62641 0.28596 -0.13800
C 	C 	0.25379 0.64331 0.28767 0.10400
C 	C 	0.21968 0.16215 0.34476 -0.06900
C 	C 	0.21882 0.15517 0.40151 -0.02000
C 	C 	0.25910 0.13912 0.39914 -0.08500
C 	C 	0.40930 0.54960 0.30248 -0.07700
N 	N 	0.43695 0.47821 0.30325 -0.14600
C 	C 	0.45690 0.46400 0.34155 -0.04600
C 	C 	0.44176 0.49118 0.40201 0.02200
C 	C 	0.47476 0.50703 0.41812 -0.04400
C 	C 	0.46105 0.53144 0.47440 -0.04800
C 	C 	0.41421 0.54059 0.51538 0.02500
C 	C 	0.39949 0.56813 0.57517 -0.04900
N 	N 	0.39392 0.61253 0.56619 -0.11200
C 	C 	0.38116 0.52494 0.49928 -0.04600
C 	C 	0.39476 0.50000 0.44345 -0.04000
H 	H 	0.51996 0.51356 0.24259 0.05300
H 	H 	0.47008 0.13647 0.23824 0.05100
H 	H 	0.38128 0.12682 0.25225 0.02800
H 	H 	0.38335 0.65212 0.31925 0.03600
H 	H 	0.31976 0.61034 0.24327 0.07300
H 	H 	0.19018 0.17746 0.34636 0.05500
H 	H 	0.25982 0.13386 0.44187 0.09200
H 	H 	0.37437 0.53837 0.32632 0.06600
H 	H 	0.40186 0.47140 0.32344 0.07900
H 	H 	0.49508 0.46181 0.31306 0.03900
H 	H 	0.44518 0.43156 0.35425 0.04300
H 	H 	0.51118 0.50039 0.38729 0.03400
H 	H 	0.48695 0.54315 0.48614 0.04100
H 	H 	0.42419 0.56418 0.59344 0.04900
H 	H 	0.36608 0.55705 0.61214 0.04000
H 	H 	0.39302 0.61692 0.52451 0.08500
H 	H 	0.34481 0.53187 0.53017 0.04300
H 	H 	0.36854 0.48772 0.43268 0.04100
C 	C 	0.10844 0.24059 0.95410 0.01700
Mn	Mn	0.07018 0.15430 0.99666 1.29300
O 	O 	0.11675 0.18720 0.64524 -0.38200
O 	O 	0.16825 0.15659 0.01581 -0.32900
O 	O 	0.07190 0.16653 0.07469 -0.47200
Mn	Mn	0.11486 0.13829 0.59349 1.38200
O 	O 	0.59697 0.22749 0.07095 -0.13300
Mn	Mn	0.14009 0.59444 0.69436 1.31200
O 	O 	0.11160 0.15088 0.72918 -0.44500
O 	O 	0.58193 0.57100 0.70590 -0.46100
O 	O 	0.55821 0.62250 0.66725 -0.42100
C 	C 	0.17252 0.15536 0.95872 0.24700
H 	H 	0.39578 0.66395 0.16296 0.03600
O 	O 	0.11489 0.58541 0.04870 -0.43500
O 	O 	0.06694 0.59421 0.00654 -0.44600
H 	H 	0.48044 0.68767 0.13559 0.03600
O 	O 	0.15814 0.60936 0.61061 -0.48500
H 	H 	0.48781 0.11847 0.97772 -0.05700
O 	O 	0.22804 0.61719 0.54985 -0.13300
H 	H 	0.02093 0.20715 0.94682 -0.02100
H 	H 	0.13245 0.28664 0.88326 0.02300
H 	H 	0.13951 0.23565 0.95712 0.02600
C 	C 	0.10893 0.18590 0.70399 0.29700
C 	C 	0.27033 0.11298 0.68091 0.01200
C 	C 	0.24337 0.09962 0.65458 0.02300
C 	C 	0.20092 0.63493 0.74130 0.07900
H 	H 	0.30596 0.10416 0.66295 0.03000
C 	C 	0.16488 0.50503 0.69480 0.07800
H 	H 	0.16958 0.64550 0.78297 -0.01500
C 	C 	0.68492 0.51921 0.60026 0.01900
H 	H 	0.25413 0.07760 0.61398 0.02900
C 	C 	0.69056 0.47656 0.60092 0.01300
H 	H 	0.14847 0.50829 0.74568 -0.01700
H 	H 	0.69939 0.45325 0.56216 0.03000
H 	H 	0.68883 0.53544 0.56046 0.04300
C 	C 	0.54931 0.59047 0.70150 0.33200
C 	C 	0.09118 0.57035 0.02199 0.40900
N 	N 	0.42945 0.13654 0.06760 -0.10200
N 	N 	0.50027 0.15641 0.04405 -0.24700
N 	N 	0.07175 0.21523 0.97619 -0.25700
N 	N 	0.06695 0.25786 0.90997 -0.13800
N 	N 	0.56620 0.20353 0.09309 0.03100
C 	C 	0.42683 0.65868 0.11824 0.01000
C 	C 	0.47082 0.67105 0.10362 0.02800
C 	C 	0.47408 0.13564 0.02318 0.13900
N 	N 	0.19989 0.11425 0.69204 -0.25000
N 	N 	0.66873 0.53676 0.65934 -0.25200
N 	N 	0.24352 0.63458 0.73642 -0.13600
N 	N 	0.67829 0.46812 0.66031 -0.14000
N 	N 	0.19250 0.63036 0.59277 0.01600
O 	O 	0.13736 0.15048 0.94736 -0.45600
C 	C 	0.04708 0.22689 0.94890 0.06200
C 	C 	0.10483 0.26747 0.91493 0.00600
C 	C 	0.18073 0.37526 0.74225 0.11600
C 	C 	0.19654 0.40796 0.70159 -0.12900
C 	C 	0.16659 0.42824 0.68624 0.11700
C 	C 	0.12163 0.41408 0.70759 -0.11400
C 	C 	0.10528 0.38095 0.74732 0.06400
C 	C 	0.05468 0.36999 0.77692 0.00200
O 	O 	0.04710 0.33088 0.75234 -0.20700
C 	C 	0.05927 0.29607 0.77313 0.16200
C 	C 	0.07849 0.26097 0.72988 -0.08400
C 	C 	0.09205 0.22454 0.74673 -0.01900
C 	C 	0.08740 0.22425 0.80697 -0.07100
C 	C 	0.06719 0.25829 0.85111 0.10000
C 	C 	0.05101 0.29320 0.83560 -0.14400
C 	C 	0.13513 0.36199 0.76478 -0.11300
N 	N 	0.20941 0.35802 0.76541 -0.15200
C 	C 	0.22507 0.38995 0.79735 -0.04600
C 	C 	0.18663 0.42025 0.84237 0.02000
C 	C 	0.18779 0.46261 0.82942 -0.04600
C 	C 	0.15155 0.49026 0.86929 -0.04500
C 	C 	0.11343 0.47604 0.92264 0.01500
C 	C 	0.07685 0.50706 0.96836 -0.05900
N 	N 	0.09309 0.52818 0.00920 -0.17700
C 	C 	0.11239 0.43378 0.93600 -0.05000
C 	C 	0.14863 0.40604 0.89597 -0.04600
H 	H 	0.23096 0.41975 0.68563 0.06900
H 	H 	0.59853 0.43100 0.69662 0.06300
H 	H 	0.03595 0.39398 0.76627 0.03700
H 	H 	0.03792 0.37363 0.82888 0.02700
H 	H 	0.08260 0.26239 0.68315 0.09200
H 	H 	0.09953 0.19745 0.82041 0.04600
H 	H 	0.03379 0.31792 0.87208 0.07000
H 	H 	0.12270 0.33859 0.79877 0.06300
H 	H 	0.19323 0.33369 0.79482 0.07700
H 	H 	0.25463 0.40684 0.76148 0.04000
H 	H 	0.23830 0.37357 0.82457 0.03700
H 	H 	0.21666 0.47427 0.78823 0.03700
H 	H 	0.15346 0.52293 0.85889 0.03000
H 	H 	0.04452 0.49051 0.99787 0.03100
H 	H 	0.06892 0.52979 0.94204 0.03400
H 	H 	0.11010 0.50977 0.02608 0.11300
H 	H 	0.08374 0.42238 0.97766 0.03100
H 	H 	0.14704 0.37348 0.90668 0.03500
C 	C 	0.44603 0.52159 0.78824 0.07600
C 	C 	0.49158 0.53545 0.75560 -0.04300
C 	C 	0.50080 0.57678 0.73733 -0.06400
C 	C 	0.46347 0.10454 0.75246 -0.02800
C 	C 	0.41744 0.59144 0.78583 0.02200
C 	C 	0.37813 0.62163 0.79874 0.01700
O 	O 	0.33449 0.60586 0.84161 -0.21900
C 	C 	0.29792 0.62668 0.84106 0.16000
C 	C 	0.29359 0.62641 0.78596 -0.14200
C 	C 	0.25379 0.64331 0.78767 0.10400
C 	C 	0.21968 0.16215 0.84476 -0.07700
C 	C 	0.21882 0.15517 0.90151 -0.01100
C 	C 	0.25910 0.13911 0.89914 -0.09700
C 	C 	0.40930 0.54960 0.80248 -0.07800
N 	N 	0.43695 0.47821 0.80325 -0.15000
C 	C 	0.45690 0.46400 0.84155 -0.02600
C 	C 	0.44175 0.49118 0.90201 -0.03600
C 	C 	0.47476 0.50703 0.91812 0.01800
C 	C 	0.46105 0.53144 0.97440 -0.17400
C 	C 	0.41421 0.54059 0.01538 0.20200
C 	C 	0.39949 0.56813 0.07517 -0.10500
N 	N 	0.39392 0.61253 0.06619 -0.10200
C 	C 	0.38116 0.52494 0.99928 -0.23700
C 	C 	0.39476 0.50000 0.94345 0.04200
H 	H 	0.51996 0.51356 0.74259 0.05200
H 	H 	0.47008 0.13646 0.73824 0.04900
H 	H 	0.38128 0.12682 0.75225 0.02700
H 	H 	0.38335 0.65212 0.81925 0.03100
H 	H 	0.31976 0.61034 0.74327 0.07200
H 	H 	0.19018 0.17746 0.84636 0.05600
H 	H 	0.25982 0.13385 0.94187 0.07700
H 	H 	0.37437 0.53837 0.82632 0.06200
H 	H 	0.40186 0.47140 0.82344 0.07600
H 	H 	0.49508 0.46181 0.81306 0.03300
H 	H 	0.44518 0.43156 0.85425 0.03300
H 	H 	0.51117 0.50039 0.88729 0.01700
H 	H 	0.48695 0.54315 0.98614 0.05700
H 	H 	0.42418 0.56418 0.09344 0.06900
H 	H 	0.36608 0.55705 0.11214 0.05600
H 	H 	0.39302 0.61692 0.02450 0.09700
H 	H 	0.34481 0.53187 0.03016 0.11900
H 	H 	0.36854 0.48772 0.93268 0.00900
C 	C 	0.10844 0.74059 0.45410 0.02500
Mn	Mn	0.07018 0.65430 0.49666 1.31600
O 	O 	0.11675 0.68720 0.14524 -0.38000
O 	O 	0.16825 0.65659 0.51581 -0.37700
O 	O 	0.07190 0.66654 0.57469 -0.48700
Mn	Mn	0.11486 0.63829 0.09349 1.38200
O 	O 	0.59698 0.72749 0.57095 -0.15400
Mn	Mn	0.14009 0.09444 0.19436 1.31200
O 	O 	0.11160 0.65088 0.22918 -0.44400
O 	O 	0.58193 0.07100 0.20591 -0.46000
O 	O 	0.55821 0.12250 0.16725 -0.42100
C 	C 	0.17252 0.65536 0.45872 0.30600
H 	H 	0.39578 0.16395 0.66296 0.03300
O 	O 	0.11489 0.08541 0.54870 -0.44300
O 	O 	0.06694 0.09421 0.50653 -0.47500
H 	H 	0.48044 0.18767 0.63559 0.03200
O 	O 	0.15815 0.10936 0.11061 -0.48400
H 	H 	0.48781 0.61847 0.47772 -0.00900
O 	O 	0.22804 0.11719 0.04985 -0.11600
H 	H 	0.02093 0.70715 0.44682 -0.01100
H 	H 	0.13245 0.78664 0.38326 0.02600
H 	H 	0.13951 0.73565 0.45712 0.03500
C 	C 	0.10893 0.68591 0.20399 0.29800
C 	C 	0.27033 0.61298 0.18091 0.01400
C 	C 	0.24337 0.59962 0.15458 0.02400
C 	C 	0.20092 0.13493 0.24130 0.08000
H 	H 	0.30596 0.60416 0.16295 0.03200
C 	C 	0.16487 0.00503 0.19481 0.07600
H 	H 	0.16958 0.14550 0.28297 -0.01400
C 	C 	0.68492 0.01921 0.10026 0.01800
H 	H 	0.25413 0.57761 0.11398 0.03300
C 	C 	0.69056 0.97656 0.10092 0.02200
H 	H 	0.14846 0.00829 0.24568 -0.01700
H 	H 	0.69940 0.95325 0.06216 0.04000
H 	H 	0.68884 0.03545 0.06046 0.05100
C 	C 	0.54931 0.09047 0.20150 0.33200
C 	C 	0.09118 0.07035 0.52199 0.40400
N 	N 	0.42945 0.63654 0.56760 -0.09500
N 	N 	0.50027 0.65641 0.54405 -0.25000
N 	N 	0.07175 0.71523 0.47619 -0.24600
N 	N 	0.06695 0.75786 0.40997 -0.13700
N 	N 	0.56620 0.70353 0.59309 0.02900
C 	C 	0.42683 0.15868 0.61824 0.00700
C 	C 	0.47082 0.17105 0.60362 0.02400
C 	C 	0.47408 0.63564 0.52318 0.07200
N 	N 	0.19989 0.61426 0.19204 -0.25000
N 	N 	0.66873 0.03676 0.15934 -0.25100
N 	N 	0.24352 0.13458 0.23642 -0.13500
N 	N 	0.67829 0.96812 0.16031 -0.13900
N 	N 	0.19250 0.13037 0.09277 0.01600
O 	O 	0.13736 0.65048 0.44736 -0.45300
C 	C 	0.04708 0.72689 0.44890 0.07000
C 	C 	0.10483 0.76747 0.41493 0.01000
C 	C 	0.18073 0.87526 0.24224 0.11900
C 	C 	0.19654 0.90796 0.20159 -0.12900
C 	C 	0.16659 0.92825 0.18624 0.12200
C 	C 	0.12163 0.91408 0.20759 -0.11400
C 	C 	0.10528 0.88095 0.24732 0.06800
C 	C 	0.05468 0.86999 0.27692 0.00000
O 	O 	0.04710 0.83088 0.25234 -0.20100
C 	C 	0.05927 0.79607 0.27313 0.16400
C 	C 	0.07849 0.76098 0.22988 -0.08300
C 	C 	0.09205 0.72454 0.24673 -0.01700
C 	C 	0.08740 0.72425 0.30697 -0.07100
C 	C 	0.06719 0.75829 0.35111 0.10300
C 	C 	0.05101 0.79320 0.33560 -0.14300
C 	C 	0.13513 0.86199 0.26478 -0.11300
N 	N 	0.20941 0.85801 0.26541 -0.15000
C 	C 	0.22507 0.88995 0.29735 -0.04800
C 	C 	0.18663 0.92025 0.34237 0.02600
C 	C 	0.18779 0.96261 0.32942 -0.04800
C 	C 	0.15156 0.99026 0.36928 -0.03400
C 	C 	0.11343 0.97604 0.42263 0.01600
C 	C 	0.07685 0.00706 0.46835 -0.02800
N 	N 	0.09309 0.02818 0.50920 -0.20100
C 	C 	0.11239 0.93378 0.43599 -0.04200
C 	C 	0.14863 0.90604 0.39597 -0.04500
H 	H 	0.23096 0.91975 0.18563 0.07400
H 	H 	0.59853 0.93101 0.19662 0.06700
H 	H 	0.03595 0.89398 0.26627 0.04100
H 	H 	0.03792 0.87363 0.32888 0.03000
H 	H 	0.08259 0.76239 0.18315 0.09600
H 	H 	0.09953 0.69745 0.32041 0.04700
H 	H 	0.03379 0.81792 0.37208 0.07500
H 	H 	0.12270 0.83859 0.29876 0.06400
H 	H 	0.19323 0.83369 0.29482 0.07900
H 	H 	0.25463 0.90683 0.26148 0.04500
H 	H 	0.23830 0.87356 0.32457 0.04400
H 	H 	0.21666 0.97427 0.28823 0.04100
H 	H 	0.15346 0.02293 0.35889 0.03000
H 	H 	0.04452 0.99051 0.49786 0.04200
H 	H 	0.06892 0.02979 0.44203 0.03700
H 	H 	0.11010 0.00977 0.52608 0.10100
H 	H 	0.08374 0.92238 0.47766 0.04100
H 	H 	0.14704 0.87348 0.40667 0.04100
C 	C 	0.44603 0.02159 0.28824 0.07500
C 	C 	0.49158 0.03545 0.25560 -0.04100
C 	C 	0.50080 0.07678 0.23733 -0.06200
C 	C 	0.46347 0.60454 0.25246 -0.02800
C 	C 	0.41744 0.09144 0.28583 0.02600
C 	C 	0.37813 0.12163 0.29874 0.01600
O 	O 	0.33449 0.10586 0.34161 -0.21200
C 	C 	0.29792 0.12668 0.34106 0.16000
C 	C 	0.29359 0.12641 0.28596 -0.13800
C 	C 	0.25379 0.14331 0.28767 0.10400
C 	C 	0.21968 0.66215 0.34476 -0.06900
C 	C 	0.21882 0.65517 0.40151 -0.02000
C 	C 	0.25910 0.63912 0.39914 -0.08500
C 	C 	0.40930 0.04960 0.30248 -0.07700
N 	N 	0.43695 0.97821 0.30325 -0.14400
C 	C 	0.45690 0.96400 0.34155 -0.04700
C 	C 	0.44176 0.99118 0.40201 0.02500
C 	C 	0.47476 0.00703 0.41812 -0.04800
C 	C 	0.46105 0.03144 0.47440 -0.04800
C 	C 	0.41421 0.04059 0.51538 0.02500
C 	C 	0.39949 0.06812 0.57517 -0.04900
N 	N 	0.39392 0.11253 0.56619 -0.11200
C 	C 	0.38116 0.02494 0.49928 -0.04900
C 	C 	0.39476 1.00000 0.44345 -0.03600
H 	H 	0.51996 0.01356 0.24259 0.05200
H 	H 	0.47008 0.63647 0.23824 0.05100
H 	H 	0.38128 0.62682 0.25225 0.02800
H 	H 	0.38335 0.15212 0.31925 0.03600
H 	H 	0.31976 0.11034 0.24327 0.07300
H 	H 	0.19018 0.67746 0.34636 0.05500
H 	H 	0.25982 0.63386 0.44187 0.09200
H 	H 	0.37437 0.03837 0.32632 0.06500
H 	H 	0.40186 0.97140 0.32344 0.08000
H 	H 	0.49508 0.96181 0.31306 0.04000
H 	H 	0.44518 0.93156 0.35425 0.04300
H 	H 	0.51118 0.00039 0.38729 0.03300
H 	H 	0.48695 0.04315 0.48614 0.04000
H 	H 	0.42419 0.06418 0.59344 0.04900
H 	H 	0.36608 0.05705 0.61214 0.04000
H 	H 	0.39302 0.11692 0.52451 0.08500
H 	H 	0.34481 0.03187 0.53017 0.04300
H 	H 	0.36854 0.98772 0.43268 0.04100
C 	C 	0.10844 0.74059 0.95410 0.01700
Mn	Mn	0.07018 0.65430 0.99666 1.29300
O 	O 	0.11675 0.68720 0.64524 -0.38200
O 	O 	0.16825 0.65659 0.01581 -0.32900
O 	O 	0.07190 0.66654 0.07469 -0.47200
Mn	Mn	0.11486 0.63829 0.59349 1.38200
O 	O 	0.59697 0.72749 0.07095 -0.13300
Mn	Mn	0.14009 0.09444 0.69436 1.31200
O 	O 	0.11160 0.65088 0.72918 -0.44500
O 	O 	0.58193 0.07100 0.70590 -0.46100
O 	O 	0.55821 0.12250 0.66725 -0.42200
C 	C 	0.17252 0.65536 0.95872 0.24700
H 	H 	0.39578 0.16395 0.16296 0.03600
O 	O 	0.11489 0.08541 0.04870 -0.43500
O 	O 	0.06694 0.09421 0.00654 -0.44600
H 	H 	0.48044 0.18767 0.13559 0.03600
O 	O 	0.15814 0.10936 0.61061 -0.48500
H 	H 	0.48781 0.61847 0.97772 -0.05700
O 	O 	0.22804 0.11719 0.54985 -0.13400
H 	H 	0.02093 0.70715 0.94682 -0.02100
H 	H 	0.13245 0.78664 0.88326 0.02300
H 	H 	0.13951 0.73565 0.95712 0.02600
C 	C 	0.10893 0.68590 0.70399 0.29700
C 	C 	0.27033 0.61298 0.68091 0.01200
C 	C 	0.24337 0.59962 0.65458 0.02300
C 	C 	0.20092 0.13493 0.74130 0.07800
H 	H 	0.30596 0.60416 0.66295 0.03000
C 	C 	0.16488 0.00503 0.69480 0.07500
H 	H 	0.16958 0.14550 0.78297 -0.01500
C 	C 	0.68492 0.01921 0.60026 0.01500
H 	H 	0.25413 0.57761 0.61398 0.03000
C 	C 	0.69056 0.97656 0.60092 0.01800
H 	H 	0.14847 0.00829 0.74568 -0.01800
H 	H 	0.69939 0.95325 0.56216 0.03000
H 	H 	0.68883 0.03544 0.56046 0.04400
C 	C 	0.54931 0.09047 0.70150 0.33200
C 	C 	0.09118 0.07035 0.02199 0.40900
N 	N 	0.42945 0.63654 0.06760 -0.10200
N 	N 	0.50027 0.65641 0.04405 -0.24700
N 	N 	0.07175 0.71523 0.97619 -0.25700
N 	N 	0.06695 0.75786 0.90997 -0.13800
N 	N 	0.56620 0.70353 0.09309 0.03100
C 	C 	0.42683 0.15868 0.11824 0.01000
C 	C 	0.47082 0.17105 0.10362 0.02800
C 	C 	0.47408 0.63564 0.02318 0.13900
N 	N 	0.19989 0.61426 0.69204 -0.25000
N 	N 	0.66873 0.03676 0.65934 -0.25100
N 	N 	0.24352 0.13458 0.73642 -0.13600
N 	N 	0.67829 0.96812 0.66031 -0.13900
N 	N 	0.19250 0.13036 0.59277 0.01600
O 	O 	0.13736 0.65048 0.94736 -0.45600
C 	C 	0.04708 0.72689 0.94890 0.06200
C 	C 	0.10483 0.76747 0.91493 0.00600
C 	C 	0.18073 0.87526 0.74225 0.11600
C 	C 	0.19654 0.90796 0.70159 -0.12900
C 	C 	0.16659 0.92824 0.68624 0.11800
C 	C 	0.12163 0.91408 0.70759 -0.11400
C 	C 	0.10528 0.88095 0.74732 0.06500
C 	C 	0.05468 0.86999 0.77692 0.00200
O 	O 	0.04710 0.83088 0.75234 -0.20700
C 	C 	0.05927 0.79607 0.77313 0.16200
C 	C 	0.07849 0.76098 0.72988 -0.08400
C 	C 	0.09205 0.72454 0.74673 -0.01900
C 	C 	0.08740 0.72425 0.80697 -0.07100
C 	C 	0.06719 0.75829 0.85111 0.10000
C 	C 	0.05101 0.79320 0.83560 -0.14400
C 	C 	0.13513 0.86199 0.76478 -0.11300
N 	N 	0.20941 0.85802 0.76542 -0.15200
C 	C 	0.22507 0.88995 0.79736 -0.04600
C 	C 	0.18663 0.92025 0.84237 0.02100
C 	C 	0.18779 0.96261 0.82942 -0.04700
C 	C 	0.15155 0.99026 0.86929 -0.04200
C 	C 	0.11343 0.97604 0.92264 0.01900
C 	C 	0.07685 0.00706 0.96836 -0.06500
N 	N 	0.09309 0.02818 0.00920 -0.17600
C 	C 	0.11239 0.93378 0.93600 -0.05100
C 	C 	0.14863 0.90604 0.89597 -0.04600
H 	H 	0.23096 0.91975 0.68563 0.07000
H 	H 	0.59854 0.93100 0.69662 0.06400
H 	H 	0.03595 0.89398 0.76627 0.03800
H 	H 	0.03792 0.87363 0.82888 0.02700
H 	H 	0.08260 0.76239 0.68315 0.09200
H 	H 	0.09953 0.69745 0.82041 0.04600
H 	H 	0.03379 0.81792 0.87208 0.07000
H 	H 	0.12270 0.83859 0.79877 0.06300
H 	H 	0.19323 0.83369 0.79482 0.07700
H 	H 	0.25463 0.90684 0.76148 0.04100
H 	H 	0.23830 0.87357 0.82457 0.03700
H 	H 	0.21666 0.97427 0.78824 0.03800
H 	H 	0.15345 0.02293 0.85889 0.02700
H 	H 	0.04452 0.99051 0.99787 0.03500
H 	H 	0.06892 0.02979 0.94204 0.03500
H 	H 	0.11010 0.00977 0.02608 0.11200
H 	H 	0.08374 0.92238 0.97766 0.03200
H 	H 	0.14704 0.87348 0.90668 0.03500
C 	C 	0.44603 0.02159 0.78824 0.07200
C 	C 	0.49158 0.03545 0.75560 -0.04200
C 	C 	0.50080 0.07677 0.73733 -0.06500
C 	C 	0.46347 0.60454 0.75246 -0.02900
C 	C 	0.41744 0.09144 0.78583 0.02200
C 	C 	0.37813 0.12163 0.79874 0.01800
O 	O 	0.33449 0.10586 0.84161 -0.21900
C 	C 	0.29792 0.12668 0.84106 0.16000
C 	C 	0.29359 0.12641 0.78596 -0.14200
C 	C 	0.25379 0.14331 0.78767 0.10400
C 	C 	0.21968 0.66215 0.84476 -0.07700
C 	C 	0.21882 0.65517 0.90151 -0.01100
C 	C 	0.25910 0.63912 0.89914 -0.09700
C 	C 	0.40930 0.04960 0.80248 -0.07700
N 	N 	0.43695 0.97821 0.80325 -0.14800
C 	C 	0.45690 0.96400 0.84155 -0.02900
C 	C 	0.44175 0.99118 0.90201 -0.02500
C 	C 	0.47476 0.00703 0.91812 0.01000
C 	C 	0.46105 0.03144 0.97440 -0.16900
C 	C 	0.41421 0.04059 0.01538 0.19700
C 	C 	0.39948 0.06813 0.07517 -0.10400
N 	N 	0.39392 0.11253 0.06619 -0.10200
C 	C 	0.38116 0.02494 0.99928 -0.23100
C 	C 	0.39476 0.00000 0.94345 0.03000
H 	H 	0.51996 0.01356 0.74259 0.05100
H 	H 	0.47008 0.63646 0.73824 0.04900
H 	H 	0.38128 0.62682 0.75225 0.02700
H 	H 	0.38335 0.15211 0.81925 0.03000
H 	H 	0.31976 0.11033 0.74327 0.07200
H 	H 	0.19018 0.67746 0.84636 0.05600
H 	H 	0.25982 0.63386 0.94187 0.07700
H 	H 	0.37437 0.03837 0.82632 0.06100
H 	H 	0.40186 0.97140 0.82344 0.07600
H 	H 	0.49508 0.96181 0.81306 0.03500
H 	H 	0.44518 0.93156 0.85425 0.03400
H 	H 	0.51117 0.00039 0.88729 0.01800
H 	H 	0.48695 0.04315 0.98614 0.05500
H 	H 	0.42418 0.06418 0.09344 0.06800
H 	H 	0.36608 0.05705 0.11214 0.05600
H 	H 	0.39302 0.11692 0.02451 0.09800
H 	H 	0.34481 0.03187 0.03016 0.11700
H 	H 	0.36854 0.98772 0.93268 0.01400
C 	C 	0.60844 0.24059 0.45410 0.02500
Mn	Mn	0.57018 0.15430 0.49665 1.31600
O 	O 	0.61675 0.18720 0.14524 -0.38000
O 	O 	0.66825 0.15659 0.51581 -0.37700
O 	O 	0.57190 0.16654 0.57469 -0.48700
Mn	Mn	0.61486 0.13829 0.09349 1.38200
O 	O 	0.09698 0.22749 0.57095 -0.15400
Mn	Mn	0.64009 0.59444 0.19436 1.31200
O 	O 	0.61160 0.15088 0.22918 -0.44400
O 	O 	0.08193 0.57100 0.20590 -0.45800
O 	O 	0.05821 0.62250 0.16725 -0.41900
C 	C 	0.67252 0.15536 0.45872 0.30600
H 	H 	0.89578 0.66395 0.66296 0.03300
O 	O 	0.61489 0.58541 0.54870 -0.44300
O 	O 	0.56694 0.59421 0.50653 -0.47600
H 	H 	0.98044 0.68767 0.63559 0.03200
O 	O 	0.65814 0.60936 0.11061 -0.48300
H 	H 	0.98781 0.11847 0.47772 -0.00900
O 	O 	0.72804 0.61719 0.04985 -0.11700
H 	H 	0.52093 0.20715 0.44682 -0.01200
H 	H 	0.63245 0.28664 0.38326 0.02600
H 	H 	0.63951 0.23566 0.45712 0.03500
C 	C 	0.60893 0.18591 0.20399 0.29800
C 	C 	0.77034 0.11298 0.18091 0.01400
C 	C 	0.74337 0.09962 0.15458 0.02400
C 	C 	0.70092 0.63493 0.24130 0.08000
H 	H 	0.80596 0.10416 0.16295 0.03200
C 	C 	0.66488 0.50503 0.19480 0.07900
H 	H 	0.66958 0.64550 0.28297 -0.01400
C 	C 	0.18492 0.51921 0.10026 0.02200
H 	H 	0.75413 0.07761 0.11398 0.03300
C 	C 	0.19056 0.47656 0.10092 0.01800
H 	H 	0.64847 0.50829 0.24568 -0.01700
H 	H 	0.19940 0.45325 0.06216 0.04100
H 	H 	0.18884 0.53544 0.06046 0.05100
C 	C 	0.04931 0.59047 0.20150 0.32700
C 	C 	0.59118 0.57035 0.52199 0.40400
N 	N 	0.92945 0.13654 0.56760 -0.09400
N 	N 	0.00027 0.15641 0.54405 -0.24500
N 	N 	0.57175 0.21523 0.47619 -0.24700
N 	N 	0.56695 0.25786 0.40997 -0.13700
N 	N 	0.06620 0.20353 0.59309 0.03000
C 	C 	0.92683 0.65868 0.61824 0.00800
C 	C 	0.97082 0.67105 0.60362 0.01900
C 	C 	0.97408 0.13564 0.52318 0.06700
N 	N 	0.69989 0.11426 0.19204 -0.25000
N 	N 	0.16873 0.53676 0.15934 -0.25200
N 	N 	0.74352 0.63458 0.23642 -0.13500
N 	N 	0.17829 0.46812 0.16031 -0.14000
N 	N 	0.69250 0.63037 0.09277 0.01600
O 	O 	0.63736 0.15049 0.44736 -0.45300
C 	C 	0.54708 0.22690 0.44890 0.07000
C 	C 	0.60483 0.26747 0.41493 0.01000
C 	C 	0.68073 0.37526 0.24224 0.11900
C 	C 	0.69654 0.40796 0.20159 -0.12900
C 	C 	0.66659 0.42825 0.18624 0.12100
C 	C 	0.62163 0.41408 0.20759 -0.11400
C 	C 	0.60528 0.38095 0.24732 0.06700
C 	C 	0.55468 0.36999 0.27692 0.00100
O 	O 	0.54710 0.33088 0.25234 -0.20200
C 	C 	0.55927 0.29607 0.27313 0.16400
C 	C 	0.57849 0.26098 0.22988 -0.08400
C 	C 	0.59205 0.22454 0.24673 -0.01700
C 	C 	0.58740 0.22425 0.30697 -0.07100
C 	C 	0.56719 0.25829 0.35111 0.10300
C 	C 	0.55101 0.29320 0.33560 -0.14300
C 	C 	0.63513 0.36199 0.26478 -0.11300
N 	N 	0.70941 0.35802 0.26541 -0.15000
C 	C 	0.72507 0.38995 0.29735 -0.04800
C 	C 	0.68663 0.42025 0.34237 0.02500
C 	C 	0.68779 0.46261 0.32942 -0.04700
C 	C 	0.65156 0.49026 0.36929 -0.03700
C 	C 	0.61343 0.47604 0.42263 0.01200
C 	C 	0.57685 0.50706 0.46836 -0.02100
N 	N 	0.59309 0.52818 0.50920 -0.20200
C 	C 	0.61239 0.43378 0.43599 -0.04100
C 	C 	0.64863 0.40604 0.39597 -0.04500
H 	H 	0.73096 0.41975 0.18563 0.07400
H 	H 	0.09853 0.43101 0.19662 0.06700
H 	H 	0.53595 0.39398 0.26627 0.03900
H 	H 	0.53792 0.37363 0.32888 0.02900
H 	H 	0.58260 0.26239 0.18315 0.09600
H 	H 	0.59953 0.19745 0.32041 0.04700
H 	H 	0.53379 0.31792 0.37208 0.07400
H 	H 	0.62270 0.33859 0.29877 0.06400
H 	H 	0.69323 0.33369 0.29482 0.07900
H 	H 	0.75463 0.40684 0.26148 0.04500
H 	H 	0.73830 0.37357 0.32457 0.04300
H 	H 	0.71666 0.47427 0.28823 0.04000
H 	H 	0.65346 0.52293 0.35889 0.03200
H 	H 	0.54452 0.49051 0.49787 0.03700
H 	H 	0.56892 0.52979 0.44204 0.03500
H 	H 	0.61010 0.50977 0.52608 0.10200
H 	H 	0.58374 0.42238 0.47766 0.04000
H 	H 	0.64704 0.37348 0.40668 0.04100
C 	C 	0.94603 0.52159 0.28824 0.08400
C 	C 	0.99158 0.53545 0.25560 -0.06200
C 	C 	0.00080 0.57678 0.23733 -0.04400
C 	C 	0.96347 0.10454 0.25246 -0.04000
C 	C 	0.91744 0.59144 0.28583 0.03200
C 	C 	0.87813 0.62163 0.29874 0.01300
O 	O 	0.83449 0.60586 0.34161 -0.21200
C 	C 	0.79792 0.62668 0.34106 0.16000
C 	C 	0.79359 0.62641 0.28596 -0.13800
C 	C 	0.75379 0.64331 0.28767 0.10400
C 	C 	0.71968 0.16215 0.34476 -0.06900
C 	C 	0.71882 0.15517 0.40151 -0.02100
C 	C 	0.75910 0.13912 0.39914 -0.08500
C 	C 	0.90930 0.54960 0.30248 -0.08200
N 	N 	0.93695 0.47821 0.30325 -0.14700
C 	C 	0.95690 0.46400 0.34155 -0.04700
C 	C 	0.94176 0.49118 0.40201 0.02400
C 	C 	0.97476 0.50703 0.41812 -0.05300
C 	C 	0.96105 0.53144 0.47440 -0.04500
C 	C 	0.91421 0.54059 0.51538 0.02300
C 	C 	0.89949 0.56813 0.57517 -0.04800
N 	N 	0.89392 0.61253 0.56619 -0.11300
C 	C 	0.88116 0.52494 0.49928 -0.04500
C 	C 	0.89476 0.50000 0.44345 -0.04100
H 	H 	0.01996 0.51356 0.24259 0.06100
H 	H 	0.97008 0.13647 0.23824 0.05200
H 	H 	0.88128 0.12682 0.25225 0.02900
H 	H 	0.88335 0.65212 0.31925 0.03600
H 	H 	0.81976 0.61034 0.24327 0.07300
H 	H 	0.69018 0.17746 0.34636 0.05500
H 	H 	0.75982 0.13386 0.44187 0.09200
H 	H 	0.87437 0.53837 0.32632 0.06700
H 	H 	0.90186 0.47140 0.32344 0.07900
H 	H 	0.99508 0.46181 0.31306 0.03700
H 	H 	0.94518 0.43156 0.35425 0.04200
H 	H 	0.01118 0.50039 0.38729 0.03900
H 	H 	0.98695 0.54315 0.48614 0.03800
H 	H 	0.92419 0.56418 0.59344 0.04900
H 	H 	0.86608 0.55705 0.61214 0.04000
H 	H 	0.89302 0.61692 0.52451 0.08500
H 	H 	0.84481 0.53187 0.53017 0.04200
H 	H 	0.86854 0.48772 0.43268 0.04100
C 	C 	0.60844 0.24059 0.95410 0.01700
Mn	Mn	0.57018 0.15430 0.99666 1.29300
O 	O 	0.61675 0.18720 0.64524 -0.38200
O 	O 	0.66825 0.15659 0.01581 -0.33000
O 	O 	0.57190 0.16653 0.07469 -0.47300
Mn	Mn	0.61486 0.13829 0.59349 1.38200
O 	O 	0.09697 0.22749 0.07095 -0.13300
Mn	Mn	0.64009 0.59444 0.69436 1.31200
O 	O 	0.61160 0.15088 0.72918 -0.44600
O 	O 	0.08193 0.57100 0.70590 -0.45900
O 	O 	0.05821 0.62250 0.66725 -0.42000
C 	C 	0.67252 0.15536 0.95872 0.24800
H 	H 	0.89578 0.66395 0.16296 0.03500
O 	O 	0.61489 0.58541 0.04870 -0.43500
O 	O 	0.56694 0.59421 0.00654 -0.44700
H 	H 	0.98044 0.68767 0.13559 0.03500
O 	O 	0.65814 0.60936 0.61061 -0.48500
H 	H 	0.98781 0.11847 0.97772 -0.05500
O 	O 	0.72804 0.61719 0.54985 -0.13400
H 	H 	0.52093 0.20715 0.94682 -0.02200
H 	H 	0.63245 0.28664 0.88326 0.02300
H 	H 	0.63951 0.23565 0.95712 0.02600
C 	C 	0.60893 0.18590 0.70399 0.29700
C 	C 	0.77033 0.11298 0.68091 0.01200
C 	C 	0.74337 0.09962 0.65458 0.02300
C 	C 	0.70092 0.63493 0.74130 0.07800
H 	H 	0.80596 0.10416 0.66295 0.03000
C 	C 	0.66488 0.50503 0.69480 0.07800
H 	H 	0.66958 0.64550 0.78297 -0.01500
C 	C 	0.18492 0.51921 0.60026 0.01900
H 	H 	0.75413 0.07760 0.61398 0.02900
C 	C 	0.19056 0.47656 0.60092 0.01400
H 	H 	0.64847 0.50829 0.74568 -0.01700
H 	H 	0.19939 0.45325 0.56216 0.03000
H 	H 	0.18883 0.53544 0.56046 0.04300
C 	C 	0.04931 0.59047 0.70150 0.32800
C 	C 	0.59118 0.57035 0.02199 0.40900
N 	N 	0.92945 0.13654 0.06760 -0.10100
N 	N 	0.00027 0.15641 0.04405 -0.24000
N 	N 	0.57175 0.21523 0.97619 -0.25700
N 	N 	0.56695 0.25786 0.90997 -0.13800
N 	N 	0.06620 0.20353 0.09309 0.03100
C 	C 	0.92683 0.65868 0.11824 0.01100
C 	C 	0.97082 0.67105 0.10362 0.02200
C 	C 	0.97408 0.13564 0.02318 0.13200
N 	N 	0.69989 0.11425 0.69204 -0.25000
N 	N 	0.16873 0.53676 0.65934 -0.25200
N 	N 	0.74352 0.63458 0.73642 -0.13600
N 	N 	0.17829 0.46812 0.66031 -0.14000
N 	N 	0.69250 0.63036 0.59277 0.01600
O 	O 	0.63736 0.15048 0.94736 -0.45600
C 	C 	0.54708 0.22689 0.94890 0.06200
C 	C 	0.60483 0.26747 0.91493 0.00600
C 	C 	0.68073 0.37526 0.74225 0.11600
C 	C 	0.69654 0.40796 0.70159 -0.12900
C 	C 	0.66659 0.42824 0.68624 0.11700
C 	C 	0.62163 0.41408 0.70759 -0.11400
C 	C 	0.60528 0.38095 0.74732 0.06400
C 	C 	0.55468 0.36999 0.77692 0.00300
O 	O 	0.54710 0.33088 0.75234 -0.20800
C 	C 	0.55927 0.29607 0.77313 0.16200
C 	C 	0.57849 0.26097 0.72988 -0.08500
C 	C 	0.59205 0.22454 0.74673 -0.02000
C 	C 	0.58740 0.22425 0.80697 -0.07100
C 	C 	0.56719 0.25829 0.85111 0.10000
C 	C 	0.55101 0.29320 0.83560 -0.14400
C 	C 	0.63513 0.36199 0.76478 -0.11300
N 	N 	0.70941 0.35802 0.76541 -0.15200
C 	C 	0.72507 0.38995 0.79735 -0.04600
C 	C 	0.68663 0.42025 0.84237 0.02000
C 	C 	0.68779 0.46261 0.82942 -0.04600
C 	C 	0.65155 0.49026 0.86929 -0.04500
C 	C 	0.61343 0.47604 0.92264 0.01500
C 	C 	0.57685 0.50706 0.96836 -0.05800
N 	N 	0.59309 0.52818 0.00920 -0.17700
C 	C 	0.61239 0.43378 0.93600 -0.05000
C 	C 	0.64863 0.40604 0.89597 -0.04600
H 	H 	0.73096 0.41975 0.68563 0.06900
H 	H 	0.09853 0.43100 0.69662 0.06400
H 	H 	0.53595 0.39398 0.76627 0.03600
H 	H 	0.53792 0.37363 0.82888 0.02600
H 	H 	0.58260 0.26239 0.68315 0.09200
H 	H 	0.59953 0.19745 0.82041 0.04600
H 	H 	0.53379 0.31792 0.87208 0.07000
H 	H 	0.62270 0.33859 0.79877 0.06300
H 	H 	0.69323 0.33369 0.79482 0.07700
H 	H 	0.75463 0.40684 0.76148 0.04000
H 	H 	0.73830 0.37357 0.82457 0.03700
H 	H 	0.71666 0.47427 0.78823 0.03700
H 	H 	0.65346 0.52293 0.85889 0.03000
H 	H 	0.54452 0.49051 0.99787 0.03000
H 	H 	0.56892 0.52979 0.94204 0.03400
H 	H 	0.61010 0.50977 0.02608 0.11300
H 	H 	0.58374 0.42238 0.97766 0.03100
H 	H 	0.64704 0.37348 0.90668 0.03500
C 	C 	0.94603 0.52159 0.78824 0.08100
C 	C 	0.99158 0.53545 0.75560 -0.05800
C 	C 	0.00080 0.57678 0.73733 -0.05000
C 	C 	0.96347 0.10454 0.75246 -0.03800
C 	C 	0.91744 0.59144 0.78583 0.02600
C 	C 	0.87813 0.62163 0.79874 0.01600
O 	O 	0.83449 0.60586 0.84161 -0.21900
C 	C 	0.79792 0.62668 0.84106 0.16000
C 	C 	0.79359 0.62641 0.78596 -0.14200
C 	C 	0.75379 0.64331 0.78767 0.10400
C 	C 	0.71968 0.16215 0.84476 -0.07600
C 	C 	0.71882 0.15517 0.90151 -0.01100
C 	C 	0.75910 0.13911 0.89914 -0.09700
C 	C 	0.90930 0.54960 0.80248 -0.08200
N 	N 	0.93695 0.47821 0.80325 -0.15100
C 	C 	0.95690 0.46400 0.84155 -0.02700
C 	C 	0.94175 0.49118 0.90201 -0.03300
C 	C 	0.97476 0.50703 0.91812 0.01000
C 	C 	0.96105 0.53144 0.97440 -0.16800
C 	C 	0.91421 0.54059 0.01538 0.19500
C 	C 	0.89949 0.56813 0.07517 -0.10300
N 	N 	0.89392 0.61253 0.06619 -0.10300
C 	C 	0.88116 0.52494 0.99928 -0.23100
C 	C 	0.89476 0.50000 0.94345 0.03800
H 	H 	0.01996 0.51356 0.74259 0.05800
H 	H 	0.97008 0.13646 0.73824 0.05000
H 	H 	0.88128 0.12682 0.75225 0.02700
H 	H 	0.88335 0.65212 0.81925 0.03100
H 	H 	0.81976 0.61034 0.74327 0.07200
H 	H 	0.69018 0.17746 0.84636 0.05600
H 	H 	0.75982 0.13385 0.94187 0.07700
H 	H 	0.87437 0.53837 0.82632 0.06300
H 	H 	0.90186 0.47140 0.82344 0.07500
H 	H 	0.99508 0.46181 0.81306 0.03100
H 	H 	0.94518 0.43156 0.85425 0.03200
H 	H 	0.01117 0.50039 0.88729 0.02100
H 	H 	0.98695 0.54315 0.98614 0.05400
H 	H 	0.92418 0.56418 0.09344 0.06700
H 	H 	0.86608 0.55705 0.11214 0.05500
H 	H 	0.89302 0.61692 0.02450 0.09700
H 	H 	0.84481 0.53187 0.03016 0.11700
H 	H 	0.86854 0.48772 0.93268 0.01000
C 	C 	0.60844 0.74059 0.45410 0.02500
Mn	Mn	0.57018 0.65430 0.49666 1.31600
O 	O 	0.61675 0.68720 0.14524 -0.38000
O 	O 	0.66825 0.65659 0.51581 -0.37700
O 	O 	0.57190 0.66654 0.57469 -0.48700
Mn	Mn	0.61486 0.63829 0.09349 1.38200
O 	O 	0.09698 0.72749 0.57095 -0.15400
Mn	Mn	0.64009 0.09444 0.19436 1.31200
O 	O 	0.61160 0.65088 0.22918 -0.44400
O 	O 	0.08193 0.07100 0.20591 -0.45800
O 	O 	0.05821 0.12250 0.16725 -0.41900
C 	C 	0.67252 0.65536 0.45872 0.30600
H 	H 	0.89578 0.16395 0.66296 0.03300
O 	O 	0.61489 0.08541 0.54870 -0.44300
O 	O 	0.56694 0.09421 0.50653 -0.47600
H 	H 	0.98044 0.18767 0.63559 0.03200
O 	O 	0.65815 0.10936 0.11061 -0.48400
H 	H 	0.98781 0.61847 0.47772 -0.00900
O 	O 	0.72804 0.11719 0.04985 -0.11700
H 	H 	0.52093 0.70715 0.44682 -0.01200
H 	H 	0.63245 0.78664 0.38326 0.02600
H 	H 	0.63951 0.73565 0.45712 0.03500
C 	C 	0.60893 0.68591 0.20399 0.29800
C 	C 	0.77033 0.61298 0.18091 0.01400
C 	C 	0.74337 0.59962 0.15458 0.02400
C 	C 	0.70092 0.13493 0.24130 0.08000
H 	H 	0.80596 0.60416 0.16295 0.03200
C 	C 	0.66487 0.00503 0.19481 0.07600
H 	H 	0.66958 0.14550 0.28297 -0.01400
C 	C 	0.18492 0.01921 0.10026 0.01800
H 	H 	0.75413 0.57761 0.11398 0.03300
C 	C 	0.19056 0.97656 0.10092 0.02200
H 	H 	0.64846 0.00829 0.24568 -0.01800
H 	H 	0.19940 0.95325 0.06216 0.04100
H 	H 	0.18884 0.03545 0.06046 0.05100
C 	C 	0.04931 0.09047 0.20150 0.32700
C 	C 	0.59118 0.07035 0.52199 0.40400
N 	N 	0.92945 0.63654 0.56760 -0.09400
N 	N 	0.00027 0.65641 0.54405 -0.24500
N 	N 	0.57175 0.71523 0.47619 -0.24700
N 	N 	0.56695 0.75786 0.40997 -0.13700
N 	N 	0.06620 0.70353 0.59309 0.03000
C 	C 	0.92683 0.15868 0.61824 0.00800
C 	C 	0.97082 0.17105 0.60362 0.01900
C 	C 	0.97408 0.63564 0.52318 0.06700
N 	N 	0.69989 0.61426 0.19204 -0.25000
N 	N 	0.16873 0.03676 0.15934 -0.25100
N 	N 	0.74352 0.13458 0.23642 -0.13500
N 	N 	0.17829 0.96812 0.16031 -0.13900
N 	N 	0.69250 0.13037 0.09277 0.01600
O 	O 	0.63736 0.65048 0.44736 -0.45300
C 	C 	0.54708 0.72689 0.44890 0.07000
C 	C 	0.60483 0.76747 0.41493 0.01000
C 	C 	0.68073 0.87526 0.24224 0.11900
C 	C 	0.69654 0.90796 0.20159 -0.12900
C 	C 	0.66659 0.92825 0.18624 0.12100
C 	C 	0.62163 0.91408 0.20759 -0.11300
C 	C 	0.60528 0.88095 0.24732 0.06700
C 	C 	0.55468 0.86999 0.27692 0.00100
O 	O 	0.54710 0.83088 0.25234 -0.20200
C 	C 	0.55927 0.79607 0.27313 0.16400
C 	C 	0.57849 0.76098 0.22988 -0.08300
C 	C 	0.59205 0.72454 0.24673 -0.01700
C 	C 	0.58740 0.72425 0.30697 -0.07100
C 	C 	0.56719 0.75829 0.35111 0.10300
C 	C 	0.55101 0.79320 0.33560 -0.14300
C 	C 	0.63513 0.86199 0.26478 -0.11300
N 	N 	0.70941 0.85801 0.26541 -0.15000
C 	C 	0.72507 0.88995 0.29735 -0.04800
C 	C 	0.68663 0.92025 0.34237 0.02600
C 	C 	0.68779 0.96261 0.32942 -0.04800
C 	C 	0.65156 0.99026 0.36928 -0.03400
C 	C 	0.61343 0.97604 0.42263 0.01500
C 	C 	0.57685 0.00706 0.46835 -0.02700
N 	N 	0.59309 0.02818 0.50920 -0.20200
C 	C 	0.61239 0.93378 0.43599 -0.04200
C 	C 	0.64863 0.90604 0.39597 -0.04500
H 	H 	0.73096 0.91975 0.18563 0.07400
H 	H 	0.09853 0.93101 0.19662 0.06800
H 	H 	0.53595 0.89398 0.26627 0.04000
H 	H 	0.53792 0.87363 0.32888 0.02900
H 	H 	0.58259 0.76239 0.18315 0.09600
H 	H 	0.59953 0.69745 0.32041 0.04700
H 	H 	0.53379 0.81792 0.37208 0.07400
H 	H 	0.62270 0.83859 0.29876 0.06400
H 	H 	0.69323 0.83369 0.29482 0.07900
H 	H 	0.75463 0.90683 0.26148 0.04500
H 	H 	0.73830 0.87356 0.32457 0.04300
H 	H 	0.71666 0.97427 0.28823 0.04100
H 	H 	0.65346 0.02293 0.35889 0.03000
H 	H 	0.54452 0.99051 0.49786 0.04000
H 	H 	0.56892 0.02979 0.44203 0.03600
H 	H 	0.61010 0.00977 0.52608 0.10100
H 	H 	0.58374 0.92238 0.47766 0.04100
H 	H 	0.64704 0.87348 0.40667 0.04100
C 	C 	0.94603 0.02159 0.28824 0.08100
C 	C 	0.99158 0.03545 0.25560 -0.06100
C 	C 	0.00080 0.07678 0.23733 -0.04500
C 	C 	0.96347 0.60454 0.25246 -0.04100
C 	C 	0.91744 0.09144 0.28583 0.03100
C 	C 	0.87813 0.12163 0.29874 0.01400
O 	O 	0.83449 0.10586 0.34161 -0.21200
C 	C 	0.79792 0.12668 0.34106 0.15900
C 	C 	0.79359 0.12641 0.28596 -0.13800
C 	C 	0.75379 0.14331 0.28767 0.10300
C 	C 	0.71968 0.66215 0.34476 -0.06900
C 	C 	0.71882 0.65517 0.40151 -0.02000
C 	C 	0.75910 0.63912 0.39914 -0.08500
C 	C 	0.90930 0.04960 0.30248 -0.08200
N 	N 	0.93695 0.97821 0.30325 -0.14600
C 	C 	0.95690 0.96400 0.34155 -0.04700
C 	C 	0.94176 0.99118 0.40201 0.02700
C 	C 	0.97476 0.00703 0.41812 -0.05600
C 	C 	0.96105 0.03144 0.47440 -0.04500
C 	C 	0.91421 0.04059 0.51538 0.02300
C 	C 	0.89949 0.06812 0.57517 -0.04800
N 	N 	0.89392 0.11253 0.56619 -0.11300
C 	C 	0.88116 0.02494 0.49928 -0.04800
C 	C 	0.89476 1.00000 0.44345 -0.03800
H 	H 	0.01996 0.01356 0.24259 0.06000
H 	H 	0.97008 0.63647 0.23824 0.05200
H 	H 	0.88128 0.62682 0.25225 0.02900
H 	H 	0.88335 0.15212 0.31925 0.03600
H 	H 	0.81976 0.11034 0.24327 0.07300
H 	H 	0.69018 0.67746 0.34636 0.05500
H 	H 	0.75982 0.63386 0.44187 0.09200
H 	H 	0.87437 0.03837 0.32632 0.06600
H 	H 	0.90186 0.97140 0.32344 0.08000
H 	H 	0.99508 0.96181 0.31306 0.03800
H 	H 	0.94518 0.93156 0.35425 0.04200
H 	H 	0.01118 0.00039 0.38729 0.03900
H 	H 	0.98695 0.04315 0.48614 0.03800
H 	H 	0.92419 0.06418 0.59344 0.04800
H 	H 	0.86608 0.05705 0.61214 0.04000
H 	H 	0.89302 0.11692 0.52451 0.08500
H 	H 	0.84481 0.03187 0.53017 0.04300
H 	H 	0.86854 0.98772 0.43268 0.04100
C 	C 	0.60844 0.74059 0.95410 0.01700
Mn	Mn	0.57018 0.65430 0.99666 1.29300
O 	O 	0.61675 0.68720 0.64524 -0.38200
O 	O 	0.66825 0.65659 0.01581 -0.33000
O 	O 	0.57190 0.66654 0.07469 -0.47300
Mn	Mn	0.61486 0.63829 0.59349 1.38200
O 	O 	0.09697 0.72749 0.07095 -0.13300
Mn	Mn	0.64009 0.09444 0.69436 1.31200
O 	O 	0.61160 0.65088 0.72918 -0.44500
O 	O 	0.08193 0.07100 0.70590 -0.46000
O 	O 	0.05821 0.12250 0.66725 -0.42000
C 	C 	0.67252 0.65536 0.95872 0.24800
H 	H 	0.89578 0.16395 0.16296 0.03500
O 	O 	0.61489 0.08541 0.04870 -0.43500
O 	O 	0.56694 0.09421 0.00654 -0.44700
H 	H 	0.98044 0.18767 0.13559 0.03500
O 	O 	0.65814 0.10936 0.61061 -0.48500
H 	H 	0.98781 0.61847 0.97772 -0.05600
O 	O 	0.72804 0.11719 0.54985 -0.13400
H 	H 	0.52093 0.70715 0.94682 -0.02200
H 	H 	0.63245 0.78664 0.88326 0.02300
H 	H 	0.63951 0.73565 0.95712 0.02600
C 	C 	0.60893 0.68590 0.70399 0.29700
C 	C 	0.77033 0.61298 0.68091 0.01200
C 	C 	0.74337 0.59962 0.65458 0.02300
C 	C 	0.70092 0.13493 0.74130 0.07800
H 	H 	0.80596 0.60416 0.66295 0.03000
C 	C 	0.66488 0.00503 0.69480 0.07500
H 	H 	0.66958 0.14550 0.78297 -0.01500
C 	C 	0.18492 0.01921 0.60026 0.01500
H 	H 	0.75413 0.57761 0.61398 0.03000
C 	C 	0.19056 0.97656 0.60092 0.01800
H 	H 	0.64847 0.00829 0.74568 -0.01800
H 	H 	0.19939 0.95325 0.56216 0.03000
H 	H 	0.18883 0.03544 0.56046 0.04400
C 	C 	0.04931 0.09047 0.70150 0.32800
C 	C 	0.59118 0.07035 0.02199 0.40900
N 	N 	0.92945 0.63654 0.06760 -0.10100
N 	N 	0.00027 0.65641 0.04405 -0.24000
N 	N 	0.57175 0.71523 0.97619 -0.25700
N 	N 	0.56695 0.75786 0.90997 -0.13800
N 	N 	0.06620 0.70353 0.09309 0.03100
C 	C 	0.92683 0.15868 0.11824 0.01100
C 	C 	0.97082 0.17105 0.10362 0.02200
C 	C 	0.97408 0.63564 0.02318 0.13200
N 	N 	0.69989 0.61426 0.69204 -0.25000
N 	N 	0.16873 0.03676 0.65934 -0.25100
N 	N 	0.74352 0.13458 0.73642 -0.13600
N 	N 	0.17829 0.96812 0.66031 -0.13900
N 	N 	0.69250 0.13036 0.59277 0.01600
O 	O 	0.63736 0.65048 0.94736 -0.45600
C 	C 	0.54708 0.72689 0.94890 0.06200
C 	C 	0.60483 0.76747 0.91493 0.00600
C 	C 	0.68073 0.87526 0.74225 0.11600
C 	C 	0.69654 0.90796 0.70159 -0.12900
C 	C 	0.66659 0.92824 0.68624 0.11700
C 	C 	0.62163 0.91408 0.70759 -0.11400
C 	C 	0.60528 0.88095 0.74732 0.06400
C 	C 	0.55468 0.86999 0.77692 0.00200
O 	O 	0.54710 0.83088 0.75234 -0.20700
C 	C 	0.55927 0.79607 0.77313 0.16200
C 	C 	0.57849 0.76098 0.72988 -0.08500
C 	C 	0.59205 0.72454 0.74673 -0.02000
C 	C 	0.58740 0.72425 0.80697 -0.07100
C 	C 	0.56719 0.75829 0.85111 0.10000
C 	C 	0.55101 0.79320 0.83560 -0.14400
C 	C 	0.63513 0.86199 0.76478 -0.11300
N 	N 	0.70941 0.85802 0.76542 -0.15200
C 	C 	0.72507 0.88995 0.79736 -0.04600
C 	C 	0.68663 0.92025 0.84237 0.02100
C 	C 	0.68779 0.96261 0.82942 -0.04700
C 	C 	0.65155 0.99026 0.86929 -0.04200
C 	C 	0.61343 0.97604 0.92264 0.01800
C 	C 	0.57685 0.00706 0.96836 -0.06400
N 	N 	0.59309 0.02818 0.00920 -0.17700
C 	C 	0.61239 0.93378 0.93600 -0.05000
C 	C 	0.64863 0.90604 0.89597 -0.04600
H 	H 	0.73096 0.91975 0.68563 0.07000
H 	H 	0.09854 0.93100 0.69662 0.06400
H 	H 	0.53595 0.89398 0.76627 0.03700
H 	H 	0.53792 0.87363 0.82888 0.02600
H 	H 	0.58260 0.76239 0.68315 0.09200
H 	H 	0.59953 0.69745 0.82041 0.04600
H 	H 	0.53379 0.81792 0.87208 0.07000
H 	H 	0.62270 0.83859 0.79877 0.06300
H 	H 	0.69323 0.83369 0.79482 0.07700
H 	H 	0.75463 0.90684 0.76148 0.04000
H 	H 	0.73830 0.87357 0.82457 0.03700
H 	H 	0.71666 0.97427 0.78824 0.03800
H 	H 	0.65345 0.02293 0.85889 0.02700
H 	H 	0.54452 0.99051 0.99787 0.03400
H 	H 	0.56892 0.02979 0.94204 0.03400
H 	H 	0.61010 0.00977 0.02608 0.11200
H 	H 	0.58374 0.92238 0.97766 0.03200
H 	H 	0.64704 0.87348 0.90668 0.03500
C 	C 	0.94603 0.02159 0.78824 0.07800
C 	C 	0.99158 0.03545 0.75560 -0.05700
C 	C 	0.00080 0.07677 0.73733 -0.05100
C 	C 	0.96347 0.60454 0.75246 -0.03800
C 	C 	0.91744 0.09144 0.78583 0.02600
C 	C 	0.87813 0.12163 0.79874 0.01600
O 	O 	0.83449 0.10586 0.84161 -0.21900
C 	C 	0.79792 0.12668 0.84106 0.16000
C 	C 	0.79359 0.12641 0.78596 -0.14200
C 	C 	0.75379 0.14331 0.78767 0.10400
C 	C 	0.71968 0.66215 0.84476 -0.07600
C 	C 	0.71882 0.65517 0.90151 -0.01100
C 	C 	0.75910 0.63912 0.89914 -0.09700
C 	C 	0.90930 0.04960 0.80248 -0.08100
N 	N 	0.93695 0.97821 0.80325 -0.14900
C 	C 	0.95690 0.96400 0.84155 -0.03000
C 	C 	0.94175 0.99118 0.90201 -0.02200
C 	C 	0.97476 0.00703 0.91812 0.00200
C 	C 	0.96105 0.03144 0.97440 -0.16400
C 	C 	0.91421 0.04059 0.01538 0.19100
C 	C 	0.89948 0.06813 0.07517 -0.10100
N 	N 	0.89392 0.11253 0.06619 -0.10300
C 	C 	0.88116 0.02494 0.99928 -0.22500
C 	C 	0.89476 0.00000 0.94345 0.02700
H 	H 	0.01996 0.01356 0.74259 0.05700
H 	H 	0.97008 0.63646 0.73824 0.05000
H 	H 	0.88128 0.62682 0.75225 0.02700
H 	H 	0.88335 0.15211 0.81925 0.03100
H 	H 	0.81976 0.11033 0.74327 0.07200
H 	H 	0.69018 0.67746 0.84636 0.05600
H 	H 	0.75982 0.63386 0.94187 0.07700
H 	H 	0.87437 0.03837 0.82632 0.06200
H 	H 	0.90186 0.97140 0.82344 0.07600
H 	H 	0.99508 0.96181 0.81306 0.03300
H 	H 	0.94518 0.93156 0.85425 0.03300
H 	H 	0.01117 0.00039 0.88729 0.02200
H 	H 	0.98695 0.04315 0.98614 0.05300
H 	H 	0.92418 0.06418 0.09344 0.06700
H 	H 	0.86608 0.05705 0.11214 0.05500
H 	H 	0.89302 0.11692 0.02451 0.09700
H 	H 	0.84481 0.03187 0.03016 0.11500
H 	H 	0.86854 0.98772 0.93268 0.01500
