data_crystal

_cell_length_a 36.58680
_cell_length_b 36.58410
_cell_length_c 34.46700
_cell_angle_alpha 111.55400
_cell_angle_beta  111.55400
_cell_angle_gamma 93.20400

_symmetry_space_group_name_	'P 1'
_symmetry_space_group_name_H-M	'P 1'

loop_
_symmetry_equiv_pos_as_xyz
  x,y,z

loop_
_atom_site_label
_atom_site_type_symbol
_atom_site_fract_x
_atom_site_fract_y
_atom_site_fract_z
_atom_site_charge
C 	C 	0.09832 0.17320 0.14834 0.33600
Ni	Ni	0.07945 0.10998 0.06706 1.23500
Ni	Ni	0.08932 0.09046 0.13917 1.22900
Ni	Ni	0.09895 0.10012 0.24493 1.22900
H 	H 	0.14920 0.07799 0.18956 0.19800
C 	C 	0.34956 0.42446 0.23578 0.33600
H 	H 	0.44473 0.37355 0.19453 0.19700
C 	C 	0.18535 0.14650 0.30620 0.27300
H 	H 	0.07771 0.14920 0.28379 0.24400
C 	C 	0.04292 0.33741 0.07789 0.27200
H 	H 	0.37358 0.44506 0.10033 0.24600
C 	C 	0.42928 0.36547 0.26761 0.30400
H 	H 	0.40029 0.36850 0.18326 0.21200
H 	H 	0.15427 0.12244 0.20082 0.21200
C 	C 	0.15730 0.09348 0.11649 0.30400
O 	O 	0.32447 0.04566 0.09654 -0.21900
O 	O 	0.37564 0.09938 0.15700 -0.29600
O 	O 	0.14376 0.19829 0.28755 -0.22400
O 	O 	0.09003 0.14713 0.22711 -0.29700
H 	H 	0.36693 0.40185 0.07061 0.30700
O 	O 	0.08216 0.16125 0.10404 -0.40400
O 	O 	0.10825 0.14613 0.16432 -0.39400
O 	O 	0.36152 0.10729 0.28009 -0.40400
O 	O 	0.37662 0.41453 0.21980 -0.39400
O 	O 	0.18598 0.16763 0.34666 -0.21600
H 	H 	0.12092 0.15584 0.31350 0.30300
O 	O 	0.15383 0.11923 0.26911 -0.34800
O 	O 	0.02179 0.33678 0.03744 -0.20900
O 	O 	0.07020 0.36892 0.11499 -0.34800
O 	O 	0.07221 0.38561 0.28313 -0.36000
O 	O 	0.45077 0.39178 0.26339 -0.37400
O 	O 	0.13715 0.11721 0.10097 -0.36000
O 	O 	0.13099 0.07198 0.12071 -0.37400
O 	O 	0.13298 0.09903 0.19158 -0.53500
O 	O 	0.42370 0.38979 0.19251 -0.53500
O 	O 	0.09804 0.13355 0.29233 -0.84700
O 	O 	0.38922 0.42473 0.09178 -0.85000
C 	C 	0.11026 0.18812 0.25115 0.24100
C 	C 	0.44071 0.29392 0.18792 -0.01700
C 	C 	0.46935 0.27799 0.17244 -0.04700
C 	C 	0.46820 0.23746 0.16158 0.01000
C 	C 	0.44751 0.21741 0.17765 -0.09100
C 	C 	0.10438 0.24224 0.21462 0.05000
C 	C 	0.09803 0.22761 0.24537 -0.04900
C 	C 	0.09920 0.26050 0.28519 -0.01500
C 	C 	0.10167 0.30257 0.29196 -0.01700
C 	C 	0.09968 0.31763 0.25924 -0.04600
C 	C 	0.43834 0.28557 0.22224 0.00700
C 	C 	0.40076 0.28842 0.15144 0.05400
C 	C 	0.06795 0.29762 0.11678 -0.05400
C 	C 	0.36743 0.30361 0.08727 -0.01000
C 	C 	0.32985 0.29263 0.08641 -0.07500
C 	C 	0.32763 0.27828 0.11821 0.16700
O 	O 	0.29106 0.26747 0.11841 -0.19600
C 	C 	0.28293 0.30174 0.14697 -0.02900
C 	C 	0.36316 0.27643 0.15110 -0.11700
H 	H 	0.48305 0.29198 0.15688 0.04200
H 	H 	0.48056 0.22126 0.13778 0.04800
H 	H 	0.10226 0.25392 0.31419 0.04500
H 	H 	0.10978 0.32557 0.32545 0.05500
H 	H 	0.09692 0.30984 0.12053 0.05000
H 	H 	0.30344 0.29930 0.06506 0.09300
H 	H 	0.25372 0.29278 0.14752 0.05100
H 	H 	0.30628 0.31393 0.18297 0.05500
H 	H 	0.27981 0.32525 0.13338 0.05300
H 	H 	0.36098 0.26703 0.17666 0.08200
C 	C 	0.22885 0.08205 0.19618 -0.01700
C 	C 	0.28053 0.08506 0.16949 0.04900
C 	C 	0.29516 0.09139 0.13874 -0.04800
C 	C 	0.26227 0.42357 0.09891 -0.01500
C 	C 	0.22019 0.42110 0.09215 -0.01700
C 	C 	0.20514 0.08975 0.12486 -0.04700
C 	C 	0.23720 0.08442 0.16186 0.00600
C 	C 	0.23433 0.12200 0.23266 0.05100
C 	C 	0.22513 0.12147 0.26732 -0.05600
C 	C 	0.21914 0.15532 0.29683 -0.01600
C 	C 	0.23013 0.19291 0.29770 -0.07600
C 	C 	0.24448 0.19513 0.26589 0.16500
O 	O 	0.25529 0.23170 0.26570 -0.19700
C 	C 	0.22103 0.23984 0.23714 -0.02900
C 	C 	0.24633 0.15961 0.23301 -0.11800
H 	H 	0.30150 0.04222 0.24635 0.04700
H 	H 	0.26884 0.42051 0.06992 0.04900
H 	H 	0.19720 0.41298 0.05865 0.05700
H 	H 	0.21291 0.42583 0.26356 0.05000
H 	H 	0.22346 0.21933 0.31905 0.08800
H 	H 	0.22999 0.26906 0.23659 0.05000
H 	H 	0.20884 0.21649 0.20115 0.05500
H 	H 	0.19752 0.24296 0.25073 0.05200
H 	H 	0.25573 0.16179 0.20746 0.08200
C 	C 	0.09832 0.17320 0.39834 0.33500
Ni	Ni	0.07945 0.10998 0.31706 1.23400
Ni	Ni	0.08932 0.09046 0.38917 1.22800
Ni	Ni	0.09895 0.10012 0.49493 1.22800
H 	H 	0.14920 0.07798 0.43956 0.19700
C 	C 	0.34956 0.42446 0.48578 0.33500
H 	H 	0.44473 0.37355 0.44452 0.19600
C 	C 	0.18535 0.14650 0.55620 0.27200
H 	H 	0.07771 0.14920 0.53379 0.24300
C 	C 	0.04292 0.33740 0.32789 0.27400
H 	H 	0.37358 0.44506 0.35032 0.24300
C 	C 	0.42928 0.36547 0.51761 0.30300
H 	H 	0.40029 0.36850 0.43326 0.21100
H 	H 	0.15427 0.12243 0.45082 0.21100
C 	C 	0.15730 0.09348 0.36648 0.30300
O 	O 	0.32447 0.04566 0.34654 -0.22400
O 	O 	0.37564 0.09938 0.40700 -0.29800
O 	O 	0.14376 0.19829 0.53755 -0.22500
O 	O 	0.09003 0.14713 0.47711 -0.29800
H 	H 	0.36693 0.40184 0.32061 0.30200
O 	O 	0.08216 0.16125 0.35404 -0.40600
O 	O 	0.10825 0.14613 0.41432 -0.39500
O 	O 	0.36152 0.10729 0.53009 -0.40500
O 	O 	0.37662 0.41453 0.46980 -0.39500
O 	O 	0.18598 0.16763 0.59666 -0.21700
H 	H 	0.12092 0.15584 0.56350 0.30200
O 	O 	0.15383 0.11923 0.51910 -0.34900
O 	O 	0.02179 0.33678 0.28743 -0.22200
O 	O 	0.07020 0.36891 0.36498 -0.35000
O 	O 	0.07221 0.38561 0.53313 -0.36100
O 	O 	0.45077 0.39178 0.51339 -0.37500
O 	O 	0.13716 0.11721 0.35097 -0.36000
O 	O 	0.13099 0.07198 0.37071 -0.37400
O 	O 	0.13298 0.09902 0.44158 -0.53600
O 	O 	0.42370 0.38979 0.44251 -0.53600
O 	O 	0.09804 0.13355 0.54233 -0.84800
O 	O 	0.38922 0.42473 0.34178 -0.84900
C 	C 	0.11026 0.18811 0.50115 0.24100
C 	C 	0.44071 0.29392 0.43792 -0.01700
C 	C 	0.46935 0.27799 0.42244 -0.04800
C 	C 	0.46821 0.23746 0.41158 0.00800
C 	C 	0.44751 0.21741 0.42765 -0.09300
C 	C 	0.10438 0.24224 0.46462 0.04900
C 	C 	0.09803 0.22761 0.49537 -0.05000
C 	C 	0.09919 0.26050 0.53519 -0.01600
C 	C 	0.10167 0.30257 0.54196 -0.01800
C 	C 	0.09968 0.31763 0.50924 -0.04700
C 	C 	0.43834 0.28557 0.47224 0.00600
C 	C 	0.40076 0.28842 0.40144 0.05100
C 	C 	0.06795 0.29762 0.36677 -0.05500
C 	C 	0.36743 0.30361 0.33727 -0.01600
C 	C 	0.32985 0.29263 0.33640 -0.07600
C 	C 	0.32763 0.27828 0.36821 0.16500
O 	O 	0.29106 0.26747 0.36841 -0.19700
C 	C 	0.28293 0.30174 0.39697 -0.02900
C 	C 	0.36316 0.27643 0.40110 -0.11800
H 	H 	0.48305 0.29198 0.40688 0.04000
H 	H 	0.48056 0.22126 0.38779 0.04600
H 	H 	0.10226 0.25392 0.56419 0.04400
H 	H 	0.10978 0.32557 0.57545 0.05400
H 	H 	0.09692 0.30983 0.37053 0.04900
H 	H 	0.30344 0.29930 0.31506 0.08800
H 	H 	0.25372 0.29279 0.39752 0.05000
H 	H 	0.30628 0.31393 0.43297 0.05500
H 	H 	0.27982 0.32525 0.38338 0.05200
H 	H 	0.36098 0.26704 0.42666 0.08200
C 	C 	0.22885 0.08205 0.44618 -0.01700
C 	C 	0.28053 0.08505 0.41949 0.04900
C 	C 	0.29516 0.09139 0.38874 -0.05000
C 	C 	0.26227 0.42356 0.34891 -0.01500
C 	C 	0.22019 0.42109 0.34214 -0.01800
C 	C 	0.20514 0.08975 0.37486 -0.04700
C 	C 	0.23720 0.08442 0.41186 0.00600
C 	C 	0.23433 0.12200 0.48266 0.05100
C 	C 	0.22513 0.12147 0.51732 -0.05600
C 	C 	0.21914 0.15532 0.54682 -0.01600
C 	C 	0.23013 0.19291 0.54769 -0.07600
C 	C 	0.24448 0.19513 0.51589 0.16500
O 	O 	0.25530 0.23170 0.51570 -0.19700
C 	C 	0.22103 0.23984 0.48714 -0.02900
C 	C 	0.24634 0.15961 0.48301 -0.11800
H 	H 	0.30150 0.04222 0.49635 0.04700
H 	H 	0.26884 0.42050 0.31991 0.04400
H 	H 	0.19720 0.41298 0.30865 0.05400
H 	H 	0.21291 0.42583 0.51356 0.05000
H 	H 	0.22346 0.21933 0.56905 0.08800
H 	H 	0.22999 0.26906 0.48659 0.05000
H 	H 	0.20885 0.21649 0.45114 0.05500
H 	H 	0.19752 0.24296 0.50073 0.05200
H 	H 	0.25573 0.16179 0.45746 0.08200
C 	C 	0.09832 0.17320 0.64834 0.33500
Ni	Ni	0.07945 0.10998 0.56706 1.23400
Ni	Ni	0.08932 0.09046 0.63917 1.22800
Ni	Ni	0.09895 0.10012 0.74493 1.22800
H 	H 	0.14920 0.07798 0.68956 0.19700
C 	C 	0.34956 0.42446 0.73578 0.33500
H 	H 	0.44473 0.37355 0.69452 0.19600
C 	C 	0.18535 0.14650 0.80620 0.27200
H 	H 	0.07771 0.14920 0.78379 0.24300
C 	C 	0.04292 0.33740 0.57789 0.27400
H 	H 	0.37358 0.44506 0.60032 0.24300
C 	C 	0.42928 0.36547 0.76761 0.30300
H 	H 	0.40029 0.36850 0.68326 0.21100
H 	H 	0.15427 0.12243 0.70082 0.21100
C 	C 	0.15730 0.09348 0.61648 0.30300
O 	O 	0.32447 0.04566 0.59654 -0.22400
O 	O 	0.37564 0.09938 0.65700 -0.29800
O 	O 	0.14376 0.19829 0.78755 -0.22500
O 	O 	0.09003 0.14713 0.72711 -0.29800
H 	H 	0.36693 0.40185 0.57061 0.30200
O 	O 	0.08216 0.16125 0.60404 -0.40600
O 	O 	0.10825 0.14613 0.66432 -0.39500
O 	O 	0.36152 0.10729 0.78009 -0.40500
O 	O 	0.37662 0.41453 0.71980 -0.39500
O 	O 	0.18598 0.16763 0.84666 -0.21900
H 	H 	0.12092 0.15584 0.81350 0.30200
O 	O 	0.15383 0.11923 0.76910 -0.34900
O 	O 	0.02179 0.33678 0.53743 -0.22200
O 	O 	0.07020 0.36891 0.61498 -0.35000
O 	O 	0.07221 0.38561 0.78313 -0.36100
O 	O 	0.45077 0.39178 0.76339 -0.37500
O 	O 	0.13716 0.11721 0.60097 -0.36000
O 	O 	0.13099 0.07198 0.62071 -0.37400
O 	O 	0.13298 0.09903 0.69158 -0.53600
O 	O 	0.42370 0.38979 0.69251 -0.53600
O 	O 	0.09804 0.13355 0.79233 -0.84800
O 	O 	0.38923 0.42473 0.59178 -0.84900
C 	C 	0.11026 0.18811 0.75115 0.24100
C 	C 	0.44071 0.29392 0.68792 -0.01700
C 	C 	0.46935 0.27799 0.67244 -0.04800
C 	C 	0.46821 0.23746 0.66158 0.00800
C 	C 	0.44751 0.21741 0.67765 -0.09300
C 	C 	0.10438 0.24224 0.71462 0.04900
C 	C 	0.09803 0.22761 0.74537 -0.05000
C 	C 	0.09920 0.26050 0.78519 -0.01600
C 	C 	0.10167 0.30257 0.79196 -0.01800
C 	C 	0.09968 0.31763 0.75924 -0.04700
C 	C 	0.43834 0.28557 0.72224 0.00600
C 	C 	0.40076 0.28842 0.65144 0.05100
C 	C 	0.06795 0.29762 0.61677 -0.05500
C 	C 	0.36743 0.30361 0.58727 -0.01600
C 	C 	0.32985 0.29263 0.58641 -0.07600
C 	C 	0.32763 0.27828 0.61821 0.16500
O 	O 	0.29106 0.26747 0.61841 -0.19700
C 	C 	0.28293 0.30174 0.64697 -0.02900
C 	C 	0.36316 0.27643 0.65110 -0.11800
H 	H 	0.48305 0.29198 0.65688 0.04000
H 	H 	0.48056 0.22126 0.63778 0.04600
H 	H 	0.10226 0.25392 0.81419 0.04400
H 	H 	0.10979 0.32557 0.82545 0.05400
H 	H 	0.09692 0.30983 0.62053 0.04900
H 	H 	0.30344 0.29930 0.56506 0.08800
H 	H 	0.25372 0.29278 0.64752 0.05000
H 	H 	0.30628 0.31393 0.68297 0.05500
H 	H 	0.27981 0.32525 0.63338 0.05200
H 	H 	0.36098 0.26703 0.67666 0.08200
C 	C 	0.22885 0.08205 0.69618 -0.01700
C 	C 	0.28053 0.08505 0.66949 0.04900
C 	C 	0.29516 0.09139 0.63874 -0.05000
C 	C 	0.26227 0.42357 0.59891 -0.01500
C 	C 	0.22020 0.42109 0.59215 -0.01800
C 	C 	0.20514 0.08975 0.62486 -0.04700
C 	C 	0.23720 0.08442 0.66186 0.00600
C 	C 	0.23433 0.12200 0.73266 0.05100
C 	C 	0.22513 0.12147 0.76732 -0.05600
C 	C 	0.21914 0.15532 0.79682 -0.01700
C 	C 	0.23013 0.19291 0.79770 -0.07600
C 	C 	0.24448 0.19513 0.76589 0.16500
O 	O 	0.25529 0.23170 0.76570 -0.19700
C 	C 	0.22103 0.23984 0.73714 -0.02900
C 	C 	0.24634 0.15961 0.73301 -0.11800
H 	H 	0.30150 0.04222 0.74635 0.04700
H 	H 	0.26884 0.42050 0.56991 0.04400
H 	H 	0.19720 0.41298 0.55865 0.05400
H 	H 	0.21291 0.42583 0.76356 0.05000
H 	H 	0.22346 0.21932 0.81905 0.08700
H 	H 	0.22999 0.26906 0.73659 0.05000
H 	H 	0.20884 0.21649 0.70114 0.05500
H 	H 	0.19752 0.24296 0.75073 0.05200
H 	H 	0.25573 0.16179 0.70746 0.08200
C 	C 	0.09832 0.17320 0.89834 0.34000
Ni	Ni	0.07945 0.10998 0.81706 1.23400
Ni	Ni	0.08932 0.09046 0.88917 1.22800
Ni	Ni	0.09894 0.10012 0.99493 1.21200
H 	H 	0.14920 0.07797 0.93955 0.19200
C 	C 	0.34956 0.42446 0.98578 0.29700
H 	H 	0.44472 0.37355 0.94452 0.18900
C 	C 	0.18534 0.14650 0.05620 0.27300
H 	H 	0.07771 0.14920 0.03379 0.25000
C 	C 	0.04292 0.33740 0.82788 0.27500
H 	H 	0.37358 0.44506 0.85032 0.24300
C 	C 	0.42927 0.36547 0.01761 0.29800
H 	H 	0.40028 0.36850 0.93325 0.20700
H 	H 	0.15428 0.12242 0.95081 0.20400
C 	C 	0.15730 0.09348 0.86648 0.30300
O 	O 	0.32447 0.04566 0.84653 -0.22400
O 	O 	0.37564 0.09937 0.90699 -0.29700
O 	O 	0.14375 0.19829 0.03755 -0.23400
O 	O 	0.09002 0.14713 0.97710 -0.33300
H 	H 	0.36693 0.40184 0.82060 0.30200
O 	O 	0.08216 0.16125 0.85404 -0.40700
O 	O 	0.10825 0.14613 0.91432 -0.40000
O 	O 	0.36152 0.10729 0.03009 -0.37500
O 	O 	0.37662 0.41453 0.96980 -0.39500
O 	O 	0.18598 0.16763 0.09666 -0.21700
H 	H 	0.12092 0.15584 0.06350 0.30100
O 	O 	0.15383 0.11923 0.01910 -0.33300
O 	O 	0.02179 0.33677 0.78743 -0.22200
O 	O 	0.07021 0.36891 0.86498 -0.35000
O 	O 	0.07221 0.38561 0.03313 -0.35200
O 	O 	0.45077 0.39178 0.01338 -0.35800
O 	O 	0.13716 0.11721 0.85097 -0.36100
O 	O 	0.13099 0.07198 0.87070 -0.37400
O 	O 	0.13298 0.09902 0.94157 -0.53800
O 	O 	0.42369 0.38980 0.94250 -0.53800
O 	O 	0.09803 0.13355 0.04233 -0.83900
O 	O 	0.38923 0.42473 0.84178 -0.84800
C 	C 	0.11025 0.18812 0.00115 0.31000
C 	C 	0.44071 0.29391 0.93792 -0.00200
C 	C 	0.46935 0.27799 0.92243 -0.06200
C 	C 	0.46821 0.23746 0.91158 0.01700
C 	C 	0.44751 0.21741 0.92765 -0.11200
C 	C 	0.10437 0.24223 0.96462 0.07900
C 	C 	0.09803 0.22761 0.99536 -0.13200
C 	C 	0.09919 0.26050 0.03519 0.04800
C 	C 	0.10166 0.30257 0.04195 -0.04600
C 	C 	0.09968 0.31763 0.00924 0.00400
C 	C 	0.43834 0.28557 0.97224 -0.04800
C 	C 	0.40076 0.28842 0.90144 0.04200
C 	C 	0.06795 0.29762 0.86677 -0.05000
C 	C 	0.36743 0.30360 0.83726 -0.01800
C 	C 	0.32985 0.29263 0.83640 -0.07400
C 	C 	0.32763 0.27828 0.86821 0.16200
O 	O 	0.29106 0.26747 0.86841 -0.19800
C 	C 	0.28293 0.30174 0.89697 -0.02800
C 	C 	0.36316 0.27643 0.90109 -0.11500
H 	H 	0.48305 0.29198 0.90688 0.04200
H 	H 	0.48056 0.22126 0.88779 0.04300
H 	H 	0.10225 0.25392 0.06418 0.03100
H 	H 	0.10978 0.32557 0.07545 0.06200
H 	H 	0.09692 0.30983 0.87052 0.04700
H 	H 	0.30344 0.29930 0.81505 0.08700
H 	H 	0.25372 0.29279 0.89752 0.04800
H 	H 	0.30628 0.31393 0.93296 0.05000
H 	H 	0.27982 0.32525 0.88337 0.05100
H 	H 	0.36098 0.26704 0.92665 0.07600
C 	C 	0.22885 0.08205 0.94618 -0.01300
C 	C 	0.28053 0.08505 0.91949 0.04600
C 	C 	0.29516 0.09138 0.88874 -0.04900
C 	C 	0.26227 0.42356 0.84891 -0.01600
C 	C 	0.22020 0.42109 0.84214 -0.01800
C 	C 	0.20514 0.08974 0.87486 -0.04700
C 	C 	0.23720 0.08442 0.91186 0.00500
C 	C 	0.23433 0.12200 0.98266 0.01900
C 	C 	0.22512 0.12147 0.01731 -0.01400
C 	C 	0.21914 0.15532 0.04682 -0.02300
C 	C 	0.23013 0.19291 0.04769 -0.07500
C 	C 	0.24448 0.19513 0.01589 0.19300
O 	O 	0.25530 0.23170 0.01570 -0.16800
C 	C 	0.22104 0.23984 0.98714 -0.10800
C 	C 	0.24634 0.15960 0.98301 -0.14600
H 	H 	0.30150 0.04222 0.99635 0.03600
H 	H 	0.26884 0.42049 0.81991 0.04400
H 	H 	0.19720 0.41297 0.80865 0.05400
H 	H 	0.21291 0.42583 0.01356 0.05000
H 	H 	0.22346 0.21933 0.06904 0.08900
H 	H 	0.23000 0.26906 0.98659 0.05600
H 	H 	0.20885 0.21649 0.95114 0.06700
H 	H 	0.19752 0.24296 0.00072 0.09000
H 	H 	0.25574 0.16179 0.95745 0.08300
C 	C 	0.09831 0.50654 0.14833 0.33500
Ni	Ni	0.07945 0.44332 0.06705 1.23400
Ni	Ni	0.08932 0.42381 0.13917 1.22800
Ni	Ni	0.09895 0.43345 0.24493 1.22800
H 	H 	0.14920 0.41135 0.18957 0.19600
C 	C 	0.34956 0.75779 0.23578 0.33500
H 	H 	0.44473 0.70689 0.19452 0.19600
C 	C 	0.18535 0.47984 0.30621 0.27200
H 	H 	0.07771 0.48253 0.28378 0.24300
C 	C 	0.04292 0.67074 0.07789 0.27100
H 	H 	0.37358 0.77839 0.10032 0.24500
C 	C 	0.42928 0.69880 0.26761 0.30300
H 	H 	0.40029 0.70183 0.18326 0.21100
H 	H 	0.15426 0.45580 0.20083 0.21100
C 	C 	0.15730 0.42682 0.11649 0.30300
O 	O 	0.32447 0.37901 0.09654 -0.22100
O 	O 	0.37564 0.43272 0.15699 -0.29800
O 	O 	0.14376 0.53163 0.28755 -0.22500
O 	O 	0.09004 0.48046 0.22711 -0.29800
H 	H 	0.36693 0.73518 0.07061 0.30600
O 	O 	0.08215 0.49458 0.10402 -0.40500
O 	O 	0.10824 0.47948 0.16431 -0.39500
O 	O 	0.36152 0.44062 0.28008 -0.40600
O 	O 	0.37662 0.74786 0.21980 -0.39500
O 	O 	0.18598 0.50097 0.34667 -0.21700
H 	H 	0.12092 0.48917 0.31350 0.30200
O 	O 	0.15384 0.45256 0.26911 -0.34900
O 	O 	0.02179 0.67011 0.03743 -0.21000
O 	O 	0.07020 0.70225 0.11498 -0.34900
O 	O 	0.07221 0.71895 0.28313 -0.36100
O 	O 	0.45077 0.72512 0.26339 -0.37500
O 	O 	0.13715 0.45055 0.10097 -0.36100
O 	O 	0.13098 0.40532 0.12071 -0.37500
O 	O 	0.13297 0.43238 0.19159 -0.53600
O 	O 	0.42370 0.72313 0.19251 -0.53600
C 	C 	0.33465 0.41250 0.13295 0.24000
O 	O 	0.09803 0.46688 0.29232 -0.84900
O 	O 	0.38922 0.75806 0.09178 -0.85100
C 	C 	0.11026 0.52145 0.25115 0.24100
C 	C 	0.44071 0.62725 0.18792 -0.01800
C 	C 	0.46935 0.61133 0.17243 -0.04800
C 	C 	0.46820 0.57080 0.16157 0.00900
C 	C 	0.44750 0.55075 0.17764 -0.09200
C 	C 	0.10438 0.57557 0.21462 0.04900
C 	C 	0.09804 0.56094 0.24536 -0.05000
C 	C 	0.09920 0.59383 0.28519 -0.01600
C 	C 	0.10167 0.63591 0.29196 -0.01800
C 	C 	0.09968 0.65096 0.25924 -0.04700
C 	C 	0.43834 0.61891 0.22224 0.00600
C 	C 	0.40076 0.62176 0.15144 0.05300
C 	C 	0.06794 0.63096 0.11677 -0.05500
C 	C 	0.36743 0.63694 0.08727 -0.01100
C 	C 	0.32985 0.62597 0.08640 -0.07600
C 	C 	0.32763 0.61162 0.11821 0.16600
O 	O 	0.29106 0.60081 0.11841 -0.19700
C 	C 	0.28293 0.63508 0.14697 -0.03000
C 	C 	0.36316 0.60977 0.15110 -0.11800
H 	H 	0.48305 0.62532 0.15688 0.04100
H 	H 	0.48055 0.55460 0.13777 0.04700
H 	H 	0.10227 0.58726 0.31419 0.04400
H 	H 	0.10979 0.65890 0.32545 0.05400
H 	H 	0.09692 0.64317 0.12052 0.05000
H 	H 	0.30344 0.63264 0.06505 0.09300
H 	H 	0.25371 0.62612 0.14752 0.05100
H 	H 	0.30628 0.64726 0.18296 0.05500
H 	H 	0.27981 0.65859 0.13338 0.05300
H 	H 	0.36098 0.60037 0.17666 0.08200
C 	C 	0.22885 0.41539 0.19618 -0.01700
C 	C 	0.24478 0.38674 0.21167 -0.04800
C 	C 	0.28531 0.38790 0.22253 0.00800
C 	C 	0.30535 0.40861 0.20646 -0.09300
C 	C 	0.28053 0.41839 0.16949 0.04900
C 	C 	0.29516 0.42473 0.13874 -0.04900
C 	C 	0.26227 0.75690 0.09891 -0.01500
C 	C 	0.22020 0.75443 0.09215 -0.01700
C 	C 	0.20514 0.42308 0.12486 -0.04700
C 	C 	0.23720 0.41776 0.16186 0.00600
C 	C 	0.23433 0.45533 0.23266 0.05100
C 	C 	0.22513 0.45481 0.26732 -0.05600
C 	C 	0.21915 0.48866 0.29683 -0.01600
C 	C 	0.23013 0.52624 0.29770 -0.07600
C 	C 	0.24448 0.52847 0.26589 0.16500
O 	O 	0.25529 0.56504 0.26570 -0.19700
C 	C 	0.22102 0.57317 0.23714 -0.02900
C 	C 	0.24633 0.49294 0.23301 -0.11800
H 	H 	0.23079 0.37304 0.22723 0.04000
H 	H 	0.30151 0.37555 0.24634 0.04600
H 	H 	0.26884 0.75384 0.06991 0.04900
H 	H 	0.19720 0.74632 0.05865 0.05700
H 	H 	0.21291 0.75916 0.26356 0.05000
H 	H 	0.22346 0.55266 0.31905 0.08800
H 	H 	0.22998 0.60239 0.23659 0.05000
H 	H 	0.20883 0.54982 0.20115 0.05500
H 	H 	0.19751 0.57629 0.25073 0.05200
H 	H 	0.25573 0.49513 0.20745 0.08200
C 	C 	0.09832 0.50654 0.39833 0.33500
Ni	Ni	0.07945 0.44332 0.31705 1.23400
Ni	Ni	0.08932 0.42380 0.38917 1.22800
Ni	Ni	0.09895 0.43345 0.49493 1.22800
H 	H 	0.14920 0.41134 0.43957 0.19600
C 	C 	0.34956 0.75779 0.48578 0.33500
H 	H 	0.44473 0.70689 0.44452 0.19600
C 	C 	0.18535 0.47984 0.55621 0.27200
H 	H 	0.07771 0.48253 0.53378 0.24300
C 	C 	0.04292 0.67074 0.32788 0.27400
H 	H 	0.37358 0.77839 0.35032 0.24300
C 	C 	0.42928 0.69880 0.51761 0.30300
H 	H 	0.40029 0.70183 0.43326 0.21100
H 	H 	0.15426 0.45579 0.45083 0.21100
C 	C 	0.15730 0.42682 0.36649 0.30300
O 	O 	0.32447 0.37900 0.34654 -0.22500
O 	O 	0.37564 0.43272 0.40699 -0.29800
O 	O 	0.14376 0.53163 0.53755 -0.22500
O 	O 	0.09004 0.48046 0.47710 -0.29800
H 	H 	0.36693 0.73518 0.32060 0.30200
O 	O 	0.08215 0.49458 0.35403 -0.40600
O 	O 	0.10824 0.47947 0.41431 -0.39500
O 	O 	0.36152 0.44062 0.53008 -0.40600
O 	O 	0.37662 0.74786 0.46980 -0.39500
O 	O 	0.18598 0.50097 0.59666 -0.21700
H 	H 	0.12092 0.48917 0.56350 0.30200
O 	O 	0.15384 0.45256 0.51911 -0.34900
O 	O 	0.02180 0.67011 0.28743 -0.22200
O 	O 	0.07020 0.70225 0.36498 -0.35000
O 	O 	0.07221 0.71895 0.53313 -0.36100
O 	O 	0.45077 0.72511 0.51338 -0.37500
O 	O 	0.13715 0.45055 0.35097 -0.36000
O 	O 	0.13098 0.40532 0.37071 -0.37500
O 	O 	0.13297 0.43238 0.44159 -0.53600
O 	O 	0.42370 0.72313 0.44250 -0.53600
C 	C 	0.33465 0.41250 0.38295 0.24100
O 	O 	0.09803 0.46688 0.54232 -0.84900
O 	O 	0.38923 0.75806 0.34178 -0.84900
C 	C 	0.11026 0.52145 0.50114 0.24000
C 	C 	0.44071 0.62725 0.43792 -0.01700
C 	C 	0.46935 0.61133 0.42243 -0.04800
C 	C 	0.46820 0.57080 0.41157 0.00800
C 	C 	0.44750 0.55075 0.42764 -0.09300
C 	C 	0.10437 0.57557 0.46462 0.04900
C 	C 	0.09804 0.56094 0.49536 -0.05000
C 	C 	0.09920 0.59383 0.53519 -0.01600
C 	C 	0.10167 0.63591 0.54196 -0.01800
C 	C 	0.09968 0.65096 0.50924 -0.04700
C 	C 	0.43834 0.61891 0.47224 0.00600
C 	C 	0.40076 0.62176 0.40144 0.05200
C 	C 	0.06795 0.63095 0.36677 -0.05500
C 	C 	0.36743 0.63694 0.33726 -0.01600
C 	C 	0.32985 0.62596 0.33640 -0.07600
C 	C 	0.32763 0.61162 0.36821 0.16500
O 	O 	0.29106 0.60081 0.36841 -0.19700
C 	C 	0.28293 0.63508 0.39697 -0.02900
C 	C 	0.36316 0.60977 0.40109 -0.11800
H 	H 	0.48305 0.62532 0.40688 0.04000
H 	H 	0.48055 0.55460 0.38777 0.04600
H 	H 	0.10226 0.58726 0.56418 0.04400
H 	H 	0.10978 0.65890 0.57545 0.05400
H 	H 	0.09692 0.64316 0.37052 0.04900
H 	H 	0.30344 0.63263 0.31505 0.08800
H 	H 	0.25372 0.62612 0.39752 0.05000
H 	H 	0.30628 0.64727 0.43296 0.05500
H 	H 	0.27981 0.65859 0.38337 0.05200
H 	H 	0.36098 0.60038 0.42666 0.08200
C 	C 	0.22885 0.41539 0.44618 -0.01700
C 	C 	0.24478 0.38674 0.46167 -0.04800
C 	C 	0.28531 0.38790 0.47253 0.00800
C 	C 	0.30535 0.40861 0.45647 -0.09300
C 	C 	0.28053 0.41839 0.41949 0.04900
C 	C 	0.29516 0.42473 0.38874 -0.05000
C 	C 	0.26227 0.75690 0.34891 -0.01500
C 	C 	0.22020 0.75442 0.34214 -0.01800
C 	C 	0.20514 0.42308 0.37486 -0.04700
C 	C 	0.23720 0.41776 0.41186 0.00500
C 	C 	0.23433 0.45533 0.48266 0.05100
C 	C 	0.22513 0.45481 0.51732 -0.05600
C 	C 	0.21914 0.48866 0.54683 -0.01600
C 	C 	0.23013 0.52624 0.54770 -0.07500
C 	C 	0.24448 0.52847 0.51589 0.16500
O 	O 	0.25529 0.56504 0.51570 -0.19700
C 	C 	0.22102 0.57317 0.48714 -0.02900
C 	C 	0.24633 0.49294 0.48301 -0.11800
H 	H 	0.23079 0.37304 0.47723 0.04000
H 	H 	0.30150 0.37555 0.49634 0.04600
H 	H 	0.26884 0.75383 0.31991 0.04400
H 	H 	0.19720 0.74631 0.30865 0.05400
H 	H 	0.21291 0.75916 0.51356 0.05000
H 	H 	0.22346 0.55266 0.56905 0.08800
H 	H 	0.22998 0.60239 0.48659 0.05000
H 	H 	0.20884 0.54982 0.45114 0.05500
H 	H 	0.19751 0.57629 0.50073 0.05200
H 	H 	0.25573 0.49513 0.45745 0.08200
C 	C 	0.09832 0.50654 0.64833 0.33500
Ni	Ni	0.07945 0.44332 0.56705 1.23400
Ni	Ni	0.08932 0.42381 0.63917 1.22800
Ni	Ni	0.09895 0.43345 0.74493 1.22800
H 	H 	0.14920 0.41135 0.68957 0.19600
C 	C 	0.34956 0.75779 0.73578 0.33500
H 	H 	0.44473 0.70689 0.69452 0.19600
C 	C 	0.18535 0.47984 0.80621 0.27200
H 	H 	0.07771 0.48253 0.78378 0.24300
C 	C 	0.04292 0.67074 0.57789 0.27400
H 	H 	0.37358 0.77839 0.60032 0.24300
C 	C 	0.42928 0.69880 0.76761 0.30300
H 	H 	0.40029 0.70183 0.68326 0.21100
H 	H 	0.15426 0.45579 0.70083 0.21100
C 	C 	0.15730 0.42682 0.61649 0.30300
O 	O 	0.32447 0.37900 0.59654 -0.22500
O 	O 	0.37564 0.43272 0.65699 -0.29800
O 	O 	0.14376 0.53163 0.78755 -0.22500
O 	O 	0.09004 0.48046 0.72710 -0.29800
H 	H 	0.36693 0.73518 0.57060 0.30200
O 	O 	0.08215 0.49458 0.60403 -0.40600
O 	O 	0.10824 0.47947 0.66431 -0.39500
O 	O 	0.36152 0.44062 0.78008 -0.40600
O 	O 	0.37662 0.74786 0.71980 -0.39500
O 	O 	0.18598 0.50097 0.84667 -0.21900
H 	H 	0.12092 0.48917 0.81350 0.30200
O 	O 	0.15384 0.45256 0.76911 -0.34900
O 	O 	0.02180 0.67011 0.53743 -0.22200
O 	O 	0.07020 0.70225 0.61498 -0.35000
O 	O 	0.07221 0.71895 0.78313 -0.36100
O 	O 	0.45077 0.72511 0.76339 -0.37500
O 	O 	0.13715 0.45055 0.60097 -0.36000
O 	O 	0.13099 0.40532 0.62071 -0.37500
O 	O 	0.13297 0.43238 0.69159 -0.53600
O 	O 	0.42370 0.72313 0.69251 -0.53600
C 	C 	0.33465 0.41250 0.63295 0.24100
O 	O 	0.09804 0.46688 0.79232 -0.84900
O 	O 	0.38923 0.75806 0.59178 -0.84900
C 	C 	0.11026 0.52145 0.75115 0.24100
C 	C 	0.44071 0.62725 0.68792 -0.01700
C 	C 	0.46935 0.61133 0.67243 -0.04800
C 	C 	0.46820 0.57080 0.66157 0.00800
C 	C 	0.44750 0.55075 0.67764 -0.09300
C 	C 	0.10438 0.57557 0.71462 0.04900
C 	C 	0.09804 0.56094 0.74536 -0.05000
C 	C 	0.09920 0.59383 0.78519 -0.01600
C 	C 	0.10168 0.63591 0.79196 -0.01800
C 	C 	0.09968 0.65096 0.75924 -0.04700
C 	C 	0.43834 0.61891 0.72224 0.00600
C 	C 	0.40076 0.62176 0.65144 0.05100
C 	C 	0.06795 0.63095 0.61677 -0.05400
C 	C 	0.36743 0.63694 0.58726 -0.01600
C 	C 	0.32985 0.62596 0.58640 -0.07600
C 	C 	0.32763 0.61162 0.61821 0.16500
O 	O 	0.29106 0.60081 0.61841 -0.19700
C 	C 	0.28293 0.63508 0.64697 -0.02900
C 	C 	0.36316 0.60977 0.65109 -0.11800
H 	H 	0.48305 0.62532 0.65688 0.04000
H 	H 	0.48055 0.55460 0.63777 0.04600
H 	H 	0.10227 0.58726 0.81419 0.04400
H 	H 	0.10979 0.65890 0.82545 0.05400
H 	H 	0.09692 0.64316 0.62052 0.04900
H 	H 	0.30344 0.63264 0.56505 0.08800
H 	H 	0.25372 0.62612 0.64752 0.05000
H 	H 	0.30628 0.64727 0.68296 0.05500
H 	H 	0.27981 0.65859 0.63338 0.05200
H 	H 	0.36098 0.60037 0.67666 0.08200
C 	C 	0.22885 0.41539 0.69618 -0.01700
C 	C 	0.24478 0.38674 0.71167 -0.04800
C 	C 	0.28531 0.38790 0.72253 0.00800
C 	C 	0.30535 0.40861 0.70647 -0.09300
C 	C 	0.28053 0.41839 0.66949 0.04900
C 	C 	0.29516 0.42473 0.63874 -0.05000
C 	C 	0.26227 0.75690 0.59891 -0.01500
C 	C 	0.22020 0.75442 0.59214 -0.01800
C 	C 	0.20514 0.42308 0.62486 -0.04700
C 	C 	0.23720 0.41776 0.66186 0.00600
C 	C 	0.23433 0.45533 0.73266 0.05100
C 	C 	0.22513 0.45481 0.76732 -0.05600
C 	C 	0.21915 0.48866 0.79683 -0.01700
C 	C 	0.23013 0.52624 0.79770 -0.07600
C 	C 	0.24448 0.52847 0.76589 0.16500
O 	O 	0.25529 0.56504 0.76570 -0.19700
C 	C 	0.22102 0.57317 0.73714 -0.02900
C 	C 	0.24633 0.49294 0.73301 -0.11800
H 	H 	0.23079 0.37304 0.72723 0.04000
H 	H 	0.30151 0.37555 0.74634 0.04600
H 	H 	0.26884 0.75383 0.56991 0.04400
H 	H 	0.19720 0.74631 0.55865 0.05400
H 	H 	0.21291 0.75916 0.76356 0.05000
H 	H 	0.22346 0.55266 0.81905 0.08700
H 	H 	0.22997 0.60239 0.73659 0.05000
H 	H 	0.20883 0.54982 0.70114 0.05500
H 	H 	0.19751 0.57629 0.75073 0.05200
H 	H 	0.25573 0.49513 0.70745 0.08200
C 	C 	0.09832 0.50653 0.89833 0.34000
Ni	Ni	0.07945 0.44332 0.81705 1.23400
Ni	Ni	0.08932 0.42380 0.88917 1.22800
Ni	Ni	0.09895 0.43345 0.99493 1.21200
H 	H 	0.14920 0.41134 0.93956 0.19200
C 	C 	0.34956 0.75779 0.98578 0.29700
H 	H 	0.44472 0.70688 0.94451 0.18900
C 	C 	0.18535 0.47984 0.05620 0.27300
H 	H 	0.07771 0.48253 0.03378 0.25000
C 	C 	0.04292 0.67073 0.82788 0.27500
H 	H 	0.37358 0.77839 0.85032 0.24300
C 	C 	0.42927 0.69880 0.01761 0.29800
H 	H 	0.40028 0.70184 0.93325 0.20700
H 	H 	0.15427 0.45578 0.95082 0.20400
C 	C 	0.15730 0.42682 0.86648 0.30300
O 	O 	0.32447 0.37900 0.84653 -0.22500
O 	O 	0.37564 0.43272 0.90699 -0.29700
O 	O 	0.14376 0.53163 0.03755 -0.23400
O 	O 	0.09003 0.48046 0.97710 -0.33300
H 	H 	0.36693 0.73518 0.82060 0.30200
O 	O 	0.08216 0.49458 0.85403 -0.40700
O 	O 	0.10824 0.47947 0.91431 -0.40000
O 	O 	0.36152 0.44062 0.03008 -0.37500
O 	O 	0.37662 0.74786 0.96980 -0.39500
O 	O 	0.18598 0.50097 0.09666 -0.21700
H 	H 	0.12092 0.48917 0.06349 0.30100
O 	O 	0.15384 0.45256 0.01911 -0.33300
O 	O 	0.02179 0.67011 0.78743 -0.22200
O 	O 	0.07021 0.70224 0.86498 -0.35000
O 	O 	0.07221 0.71895 0.03313 -0.35200
O 	O 	0.45077 0.72512 0.01338 -0.35800
O 	O 	0.13715 0.45055 0.85097 -0.36100
O 	O 	0.13099 0.40532 0.87071 -0.37500
O 	O 	0.13297 0.43237 0.94158 -0.53800
O 	O 	0.42369 0.72313 0.94250 -0.53800
C 	C 	0.33465 0.41249 0.88295 0.24000
O 	O 	0.09803 0.46688 0.04232 -0.83900
O 	O 	0.38923 0.75806 0.84178 -0.84800
C 	C 	0.11026 0.52145 0.00114 0.31000
C 	C 	0.44071 0.62725 0.93792 -0.00200
C 	C 	0.46935 0.61133 0.92243 -0.06200
C 	C 	0.46820 0.57079 0.91158 0.01700
C 	C 	0.44750 0.55075 0.92764 -0.11200
C 	C 	0.10437 0.57557 0.96461 0.07900
C 	C 	0.09803 0.56094 0.99536 -0.13200
C 	C 	0.09919 0.59383 0.03519 0.04800
C 	C 	0.10167 0.63591 0.04195 -0.04600
C 	C 	0.09968 0.65096 0.00924 0.00300
C 	C 	0.43833 0.61891 0.97224 -0.04800
C 	C 	0.40076 0.62176 0.90144 0.04200
C 	C 	0.06795 0.63095 0.86677 -0.05000
C 	C 	0.36743 0.63694 0.83726 -0.01800
C 	C 	0.32985 0.62596 0.83640 -0.07400
C 	C 	0.32763 0.61162 0.86821 0.16200
O 	O 	0.29106 0.60081 0.86840 -0.19800
C 	C 	0.28293 0.63508 0.89696 -0.02800
C 	C 	0.36315 0.60977 0.90109 -0.11500
H 	H 	0.48305 0.62532 0.90688 0.04200
H 	H 	0.48056 0.55460 0.88778 0.04300
H 	H 	0.10226 0.58726 0.06418 0.03100
H 	H 	0.10978 0.65890 0.07545 0.06200
H 	H 	0.09692 0.64316 0.87052 0.04800
H 	H 	0.30344 0.63263 0.81505 0.08700
H 	H 	0.25372 0.62613 0.89751 0.04800
H 	H 	0.30628 0.64727 0.93296 0.05000
H 	H 	0.27981 0.65859 0.88337 0.05100
H 	H 	0.36097 0.60038 0.92665 0.07600
C 	C 	0.22885 0.41538 0.94618 -0.01300
C 	C 	0.24478 0.38674 0.96167 -0.05300
C 	C 	0.28531 0.38790 0.97254 0.00200
C 	C 	0.30535 0.40860 0.95647 -0.08600
C 	C 	0.28053 0.41839 0.91948 0.04500
C 	C 	0.29516 0.42472 0.88873 -0.05000
C 	C 	0.26227 0.75689 0.84891 -0.01600
C 	C 	0.22020 0.75442 0.84214 -0.01800
C 	C 	0.20514 0.42308 0.87486 -0.04700
C 	C 	0.23720 0.41776 0.91186 0.00500
C 	C 	0.23433 0.45533 0.98266 0.01900
C 	C 	0.22513 0.45481 0.01732 -0.01400
C 	C 	0.21914 0.48866 0.04682 -0.02300
C 	C 	0.23013 0.52624 0.04769 -0.07500
C 	C 	0.24448 0.52847 0.01589 0.19300
O 	O 	0.25529 0.56504 0.01570 -0.16800
C 	C 	0.22103 0.57317 0.98714 -0.10800
C 	C 	0.24633 0.49294 0.98301 -0.14600
H 	H 	0.23079 0.37304 0.97722 0.03200
H 	H 	0.30150 0.37555 0.99634 0.03600
H 	H 	0.26884 0.75383 0.81991 0.04400
H 	H 	0.19720 0.74631 0.80865 0.05400
H 	H 	0.21291 0.75916 0.01355 0.05000
H 	H 	0.22346 0.55266 0.06905 0.08900
H 	H 	0.22998 0.60239 0.98659 0.05600
H 	H 	0.20884 0.54982 0.95114 0.06700
H 	H 	0.19752 0.57629 0.00073 0.09000
H 	H 	0.25573 0.49512 0.95745 0.08300
C 	C 	0.09831 0.83987 0.14833 0.33500
Ni	Ni	0.07945 0.77665 0.06705 1.23400
Ni	Ni	0.08932 0.75714 0.13917 1.22800
Ni	Ni	0.09895 0.76678 0.24493 1.22800
H 	H 	0.14920 0.74469 0.18957 0.19600
C 	C 	0.18535 0.81317 0.30621 0.27200
H 	H 	0.07771 0.81586 0.28378 0.24300
C 	C 	0.04292 0.00406 0.07788 0.27500
C 	C 	0.42928 0.03214 0.26761 0.30700
H 	H 	0.40027 0.03517 0.18325 0.21200
H 	H 	0.15426 0.78913 0.20083 0.21100
C 	C 	0.15730 0.76015 0.11649 0.30300
O 	O 	0.32447 0.71234 0.09654 -0.22100
O 	O 	0.37564 0.76606 0.15699 -0.29700
O 	O 	0.14377 0.86496 0.28755 -0.22500
O 	O 	0.09004 0.81379 0.22710 -0.29800
H 	H 	0.36693 0.06851 0.07061 0.30500
O 	O 	0.08215 0.82792 0.10402 -0.40500
O 	O 	0.10824 0.81281 0.16430 -0.39500
O 	O 	0.36152 0.77395 0.28008 -0.40600
O 	O 	0.18598 0.83430 0.34666 -0.21800
H 	H 	0.12092 0.82251 0.31349 0.30200
O 	O 	0.15384 0.78589 0.26911 -0.34900
O 	O 	0.02179 0.00344 0.03743 -0.20900
O 	O 	0.07021 0.03557 0.11498 -0.34900
O 	O 	0.07222 0.05228 0.28313 -0.36100
O 	O 	0.45077 0.05845 0.26339 -0.37500
O 	O 	0.13715 0.78388 0.10097 -0.36100
O 	O 	0.13098 0.73866 0.12071 -0.37500
O 	O 	0.13297 0.76572 0.19159 -0.53600
C 	C 	0.33465 0.74584 0.13295 0.24000
O 	O 	0.09804 0.80021 0.29232 -0.84800
C 	C 	0.11027 0.85478 0.25114 0.24000
C 	C 	0.44070 0.96059 0.18792 -0.01900
C 	C 	0.46935 0.94467 0.17244 -0.04700
C 	C 	0.46820 0.90413 0.16157 0.00800
C 	C 	0.44750 0.88408 0.17764 -0.09200
C 	C 	0.10437 0.90890 0.21461 0.04800
C 	C 	0.09804 0.89428 0.24536 -0.05000
C 	C 	0.09921 0.92716 0.28519 -0.01600
C 	C 	0.10168 0.96924 0.29196 -0.01700
C 	C 	0.09968 0.98430 0.25924 -0.05100
C 	C 	0.43833 0.95224 0.22224 0.00700
C 	C 	0.40076 0.95509 0.15144 0.05100
C 	C 	0.06794 0.96428 0.11676 -0.05400
C 	C 	0.36743 0.97027 0.08726 -0.01600
C 	C 	0.32985 0.95930 0.08640 -0.07500
C 	C 	0.32763 0.94495 0.11821 0.16500
O 	O 	0.29106 0.93414 0.11841 -0.19700
C 	C 	0.28293 0.96842 0.14697 -0.02900
C 	C 	0.36315 0.94310 0.15110 -0.11800
H 	H 	0.48305 0.95866 0.15689 0.04000
H 	H 	0.48055 0.88794 0.13777 0.04700
H 	H 	0.10228 0.92059 0.31419 0.04400
H 	H 	0.10979 0.99224 0.32545 0.05300
H 	H 	0.09691 0.97648 0.12051 0.04800
H 	H 	0.30343 0.96597 0.06505 0.09100
H 	H 	0.25371 0.95946 0.14752 0.05000
H 	H 	0.27981 0.99193 0.13338 0.05200
H 	H 	0.36097 0.93372 0.17666 0.08200
C 	C 	0.22885 0.74872 0.19618 -0.01700
C 	C 	0.24478 0.72008 0.21167 -0.04800
C 	C 	0.28531 0.72124 0.22253 0.00800
C 	C 	0.30535 0.74194 0.20646 -0.09300
C 	C 	0.28053 0.75173 0.16948 0.04900
C 	C 	0.29516 0.75806 0.13874 -0.04900
C 	C 	0.20514 0.75642 0.12486 -0.04700
C 	C 	0.23720 0.75110 0.16186 0.00600
C 	C 	0.23433 0.78867 0.23266 0.05200
C 	C 	0.22513 0.78814 0.26732 -0.05600
C 	C 	0.21915 0.82199 0.29683 -0.01600
C 	C 	0.23013 0.85958 0.29770 -0.07600
C 	C 	0.24448 0.86180 0.26589 0.16500
O 	O 	0.25529 0.89837 0.26570 -0.19700
C 	C 	0.22102 0.90651 0.23714 -0.02900
C 	C 	0.24633 0.82628 0.23301 -0.11800
H 	H 	0.23079 0.70637 0.22722 0.04000
H 	H 	0.30151 0.70889 0.24634 0.04600
H 	H 	0.22346 0.88599 0.31905 0.08800
H 	H 	0.22997 0.93573 0.23659 0.05000
H 	H 	0.20883 0.88316 0.20114 0.05500
H 	H 	0.19751 0.90962 0.25073 0.05200
H 	H 	0.25572 0.82846 0.20745 0.08200
C 	C 	0.09832 0.83987 0.39833 0.33500
Ni	Ni	0.07945 0.77665 0.31705 1.23400
Ni	Ni	0.08932 0.75714 0.38917 1.22800
Ni	Ni	0.09895 0.76678 0.49493 1.22800
H 	H 	0.14920 0.74468 0.43957 0.19600
C 	C 	0.18535 0.81317 0.55621 0.27200
H 	H 	0.07771 0.81586 0.53378 0.24300
C 	C 	0.04292 0.00406 0.32788 0.27900
C 	C 	0.42928 0.03214 0.51761 0.30700
H 	H 	0.40026 0.03517 0.43325 0.21200
H 	H 	0.15426 0.78912 0.45083 0.21100
C 	C 	0.15730 0.76015 0.36648 0.30300
O 	O 	0.32447 0.71233 0.34653 -0.22500
O 	O 	0.37564 0.76605 0.40699 -0.29800
O 	O 	0.14376 0.86496 0.53755 -0.22500
O 	O 	0.09004 0.81379 0.47710 -0.29800
H 	H 	0.36693 0.06851 0.32061 0.30200
O 	O 	0.08216 0.82792 0.35402 -0.40600
O 	O 	0.10824 0.81281 0.41430 -0.39500
O 	O 	0.36152 0.77395 0.53008 -0.40600
O 	O 	0.18598 0.83430 0.59666 -0.21700
H 	H 	0.12092 0.82251 0.56349 0.30200
O 	O 	0.15384 0.78589 0.51911 -0.34900
O 	O 	0.02179 0.00344 0.28743 -0.22100
O 	O 	0.07021 0.03557 0.36497 -0.35000
O 	O 	0.07222 0.05228 0.53313 -0.36100
O 	O 	0.45077 0.05845 0.51338 -0.37500
O 	O 	0.13715 0.78388 0.35097 -0.36000
O 	O 	0.13099 0.73865 0.37071 -0.37500
O 	O 	0.13297 0.76571 0.44158 -0.53600
C 	C 	0.33465 0.74583 0.38295 0.24100
O 	O 	0.09803 0.80021 0.54232 -0.84800
C 	C 	0.11026 0.85478 0.50114 0.24000
C 	C 	0.44070 0.96059 0.43792 -0.01800
C 	C 	0.46935 0.94467 0.42244 -0.04800
C 	C 	0.46820 0.90413 0.41157 0.00800
C 	C 	0.44750 0.88408 0.42764 -0.09200
C 	C 	0.10437 0.90890 0.46461 0.04800
C 	C 	0.09804 0.89428 0.49536 -0.05000
C 	C 	0.09920 0.92716 0.53519 -0.01600
C 	C 	0.10168 0.96924 0.54196 -0.01700
C 	C 	0.09968 0.98430 0.50924 -0.05100
C 	C 	0.43833 0.95224 0.47224 0.00600
C 	C 	0.40076 0.95509 0.40144 0.05000
C 	C 	0.06794 0.96428 0.36676 -0.05300
C 	C 	0.36743 0.97027 0.33725 -0.02200
C 	C 	0.32985 0.95929 0.33640 -0.07400
C 	C 	0.32763 0.94495 0.36821 0.16400
O 	O 	0.29106 0.93415 0.36841 -0.19700
C 	C 	0.28293 0.96842 0.39697 -0.02900
C 	C 	0.36315 0.94310 0.40110 -0.11800
H 	H 	0.48306 0.95866 0.40689 0.04000
H 	H 	0.48055 0.88794 0.38777 0.04600
H 	H 	0.10227 0.92059 0.56419 0.04400
H 	H 	0.10979 0.99224 0.57545 0.05300
H 	H 	0.09692 0.97648 0.37051 0.04800
H 	H 	0.30343 0.96596 0.31504 0.08600
H 	H 	0.25371 0.95947 0.39752 0.05000
H 	H 	0.27981 0.99193 0.38337 0.05100
H 	H 	0.36097 0.93372 0.42666 0.08200
C 	C 	0.22885 0.74872 0.44618 -0.01700
C 	C 	0.24478 0.72008 0.46167 -0.04800
C 	C 	0.28531 0.72124 0.47253 0.00800
C 	C 	0.30535 0.74194 0.45646 -0.09300
C 	C 	0.28053 0.75172 0.41948 0.04900
C 	C 	0.29516 0.75806 0.38873 -0.05000
C 	C 	0.20514 0.75642 0.37486 -0.04700
C 	C 	0.23720 0.75109 0.41186 0.00600
C 	C 	0.23433 0.78867 0.48266 0.05100
C 	C 	0.22513 0.78814 0.51732 -0.05600
C 	C 	0.21915 0.82199 0.54683 -0.01600
C 	C 	0.23013 0.85958 0.54770 -0.07600
C 	C 	0.24448 0.86180 0.51589 0.16500
O 	O 	0.25529 0.89837 0.51570 -0.19700
C 	C 	0.22102 0.90651 0.48714 -0.02900
C 	C 	0.24633 0.82628 0.48301 -0.11800
H 	H 	0.23079 0.70637 0.47722 0.04000
H 	H 	0.30151 0.70889 0.49634 0.04600
H 	H 	0.22346 0.88599 0.56905 0.08800
H 	H 	0.22997 0.93573 0.48659 0.05000
H 	H 	0.20883 0.88316 0.45114 0.05500
H 	H 	0.19751 0.90962 0.50073 0.05200
H 	H 	0.25573 0.82846 0.45745 0.08200
C 	C 	0.09832 0.83987 0.64833 0.33500
Ni	Ni	0.07945 0.77665 0.56705 1.23400
Ni	Ni	0.08932 0.75714 0.63917 1.22800
Ni	Ni	0.09895 0.76678 0.74493 1.22800
H 	H 	0.14920 0.74468 0.68957 0.19600
C 	C 	0.18535 0.81317 0.80621 0.27200
H 	H 	0.07771 0.81586 0.78378 0.24300
C 	C 	0.04292 0.00406 0.57788 0.27800
C 	C 	0.42928 0.03214 0.76761 0.30700
H 	H 	0.40027 0.03517 0.68325 0.21200
H 	H 	0.15426 0.78913 0.70083 0.21100
C 	C 	0.15730 0.76015 0.61648 0.30300
O 	O 	0.32447 0.71234 0.59654 -0.22500
O 	O 	0.37564 0.76606 0.65699 -0.29800
O 	O 	0.14377 0.86496 0.78755 -0.22500
O 	O 	0.09004 0.81379 0.72710 -0.29800
H 	H 	0.36693 0.06851 0.57061 0.30200
O 	O 	0.08216 0.82792 0.60402 -0.40600
O 	O 	0.10824 0.81281 0.66430 -0.39500
O 	O 	0.36152 0.77395 0.78008 -0.40600
O 	O 	0.18598 0.83430 0.84666 -0.21900
H 	H 	0.12092 0.82251 0.81349 0.30200
O 	O 	0.15384 0.78589 0.76911 -0.34900
O 	O 	0.02179 0.00344 0.53743 -0.22100
O 	O 	0.07021 0.03557 0.61498 -0.35000
O 	O 	0.07222 0.05228 0.78313 -0.36100
O 	O 	0.45077 0.05845 0.76338 -0.37500
O 	O 	0.13715 0.78388 0.60097 -0.36000
O 	O 	0.13099 0.73865 0.62071 -0.37500
O 	O 	0.13297 0.76571 0.69159 -0.53600
C 	C 	0.33465 0.74583 0.63295 0.24100
O 	O 	0.09804 0.80021 0.79232 -0.84800
C 	C 	0.11027 0.85478 0.75114 0.24000
C 	C 	0.44070 0.96059 0.68792 -0.01800
C 	C 	0.46935 0.94467 0.67244 -0.04800
C 	C 	0.46820 0.90413 0.66157 0.00800
C 	C 	0.44750 0.88408 0.67764 -0.09200
C 	C 	0.10437 0.90890 0.71461 0.04900
C 	C 	0.09804 0.89428 0.74536 -0.05000
C 	C 	0.09921 0.92716 0.78519 -0.01600
C 	C 	0.10168 0.96924 0.79196 -0.01700
C 	C 	0.09968 0.98430 0.75924 -0.05100
C 	C 	0.43833 0.95224 0.72224 0.00600
C 	C 	0.40076 0.95509 0.65144 0.05000
C 	C 	0.06794 0.96428 0.61676 -0.05300
C 	C 	0.36743 0.97027 0.58726 -0.02100
C 	C 	0.32985 0.95929 0.58640 -0.07400
C 	C 	0.32763 0.94495 0.61821 0.16400
O 	O 	0.29106 0.93415 0.61841 -0.19700
C 	C 	0.28293 0.96842 0.64697 -0.02900
C 	C 	0.36315 0.94310 0.65110 -0.11800
H 	H 	0.48305 0.95866 0.65689 0.04000
H 	H 	0.48055 0.88794 0.63777 0.04600
H 	H 	0.10228 0.92059 0.81419 0.04400
H 	H 	0.10980 0.99224 0.82546 0.05300
H 	H 	0.09692 0.97648 0.62051 0.04800
H 	H 	0.30343 0.96597 0.56505 0.08600
H 	H 	0.25371 0.95947 0.64752 0.05000
H 	H 	0.27981 0.99193 0.63337 0.05100
H 	H 	0.36097 0.93372 0.67666 0.08200
C 	C 	0.22885 0.74872 0.69618 -0.01700
C 	C 	0.24478 0.72008 0.71167 -0.04800
C 	C 	0.28531 0.72124 0.72253 0.00800
C 	C 	0.30535 0.74194 0.70646 -0.09300
C 	C 	0.28053 0.75172 0.66948 0.04900
C 	C 	0.29516 0.75806 0.63873 -0.05000
C 	C 	0.20514 0.75642 0.62486 -0.04700
C 	C 	0.23720 0.75109 0.66186 0.00600
C 	C 	0.23433 0.78867 0.73266 0.05100
C 	C 	0.22513 0.78814 0.76732 -0.05600
C 	C 	0.21915 0.82199 0.79683 -0.01700
C 	C 	0.23013 0.85958 0.79770 -0.07600
C 	C 	0.24448 0.86180 0.76589 0.16500
O 	O 	0.25529 0.89837 0.76570 -0.19700
C 	C 	0.22102 0.90650 0.73714 -0.02900
C 	C 	0.24633 0.82628 0.73301 -0.11800
H 	H 	0.23079 0.70637 0.72722 0.04000
H 	H 	0.30151 0.70889 0.74634 0.04600
H 	H 	0.22346 0.88599 0.81905 0.08700
H 	H 	0.22997 0.93572 0.73659 0.05000
H 	H 	0.20883 0.88315 0.70114 0.05500
H 	H 	0.19751 0.90962 0.75073 0.05200
H 	H 	0.25573 0.82846 0.70745 0.08200
C 	C 	0.09832 0.83987 0.89833 0.33900
Ni	Ni	0.07945 0.77665 0.81705 1.23400
Ni	Ni	0.08932 0.75713 0.88917 1.22800
Ni	Ni	0.09895 0.76678 0.99492 1.21200
H 	H 	0.14920 0.74467 0.93956 0.19200
C 	C 	0.18535 0.81317 0.05620 0.27300
H 	H 	0.07771 0.81586 0.03378 0.25000
C 	C 	0.04292 0.00406 0.82787 0.27900
C 	C 	0.42927 0.03214 0.01761 0.30200
H 	H 	0.40026 0.03518 0.93324 0.20800
H 	H 	0.15427 0.78912 0.95082 0.20400
C 	C 	0.15730 0.76015 0.86648 0.30300
O 	O 	0.32447 0.71233 0.84653 -0.22500
O 	O 	0.37564 0.76605 0.90699 -0.29800
O 	O 	0.14376 0.86496 0.03755 -0.23400
O 	O 	0.09003 0.81379 0.97710 -0.33200
H 	H 	0.36693 0.06851 0.82061 0.30200
O 	O 	0.08216 0.82792 0.85402 -0.40700
O 	O 	0.10824 0.81281 0.91431 -0.40000
O 	O 	0.36152 0.77395 0.03008 -0.37500
O 	O 	0.18598 0.83430 0.09666 -0.21700
H 	H 	0.12092 0.82251 0.06349 0.30100
O 	O 	0.15384 0.78590 0.01910 -0.33300
O 	O 	0.02179 0.00344 0.78742 -0.22100
O 	O 	0.07021 0.03557 0.86497 -0.35000
O 	O 	0.07221 0.05228 0.03313 -0.35200
O 	O 	0.45077 0.05845 0.01338 -0.35800
O 	O 	0.13715 0.78388 0.85097 -0.36100
O 	O 	0.13099 0.73865 0.87071 -0.37400
O 	O 	0.13297 0.76571 0.94158 -0.53800
C 	C 	0.33465 0.74583 0.88295 0.24000
O 	O 	0.09803 0.80021 0.04232 -0.83900
C 	C 	0.11026 0.85478 0.00114 0.30900
C 	C 	0.44070 0.96059 0.93792 -0.00300
C 	C 	0.46935 0.94466 0.92243 -0.06200
C 	C 	0.46820 0.90413 0.91157 0.01700
C 	C 	0.44750 0.88408 0.92764 -0.11100
C 	C 	0.10437 0.90890 0.96461 0.07800
C 	C 	0.09803 0.89428 0.99536 -0.13000
C 	C 	0.09920 0.92716 0.03519 0.04600
C 	C 	0.10167 0.96924 0.04195 -0.04500
C 	C 	0.09968 0.98430 0.00924 -0.00100
C 	C 	0.43833 0.95224 0.97224 -0.04600
C 	C 	0.40076 0.95509 0.90143 0.04100
C 	C 	0.06794 0.96427 0.86676 -0.04900
C 	C 	0.36743 0.97026 0.83725 -0.02300
C 	C 	0.32985 0.95929 0.83639 -0.07300
C 	C 	0.32763 0.94495 0.86821 0.16100
O 	O 	0.29106 0.93415 0.86840 -0.19800
C 	C 	0.28293 0.96842 0.89696 -0.02700
C 	C 	0.36315 0.94310 0.90109 -0.11500
H 	H 	0.48305 0.95866 0.90688 0.04100
H 	H 	0.48056 0.88794 0.88778 0.04300
H 	H 	0.10226 0.92059 0.06418 0.03100
H 	H 	0.10979 0.99224 0.07545 0.06000
H 	H 	0.09692 0.97648 0.87050 0.04600
H 	H 	0.30343 0.96596 0.81504 0.08600
H 	H 	0.25371 0.95947 0.89751 0.04800
H 	H 	0.27981 0.99193 0.88337 0.05000
H 	H 	0.36097 0.93372 0.92666 0.07600
C 	C 	0.22885 0.74872 0.94618 -0.01300
C 	C 	0.24478 0.72007 0.96167 -0.05300
C 	C 	0.28531 0.72124 0.97253 0.00200
C 	C 	0.30535 0.74194 0.95646 -0.08600
C 	C 	0.28053 0.75172 0.91948 0.04600
C 	C 	0.29516 0.75806 0.88873 -0.05000
C 	C 	0.20514 0.75641 0.87486 -0.04700
C 	C 	0.23720 0.75109 0.91186 0.00500
C 	C 	0.23433 0.78867 0.98265 0.01900
C 	C 	0.22513 0.78814 0.01731 -0.01400
C 	C 	0.21914 0.82199 0.04682 -0.02300
C 	C 	0.23013 0.85958 0.04769 -0.07500
C 	C 	0.24448 0.86180 0.01589 0.19300
O 	O 	0.25529 0.89837 0.01570 -0.16900
C 	C 	0.22102 0.90651 0.98714 -0.10700
C 	C 	0.24633 0.82627 0.98301 -0.14500
H 	H 	0.23079 0.70637 0.97722 0.03200
H 	H 	0.30150 0.70889 0.99634 0.03600
H 	H 	0.22346 0.88599 0.06905 0.08900
H 	H 	0.22998 0.93573 0.98659 0.05600
H 	H 	0.20884 0.88316 0.95114 0.06700
H 	H 	0.19751 0.90962 0.00072 0.09000
H 	H 	0.25573 0.82846 0.95745 0.08300
C 	C 	0.43166 0.17320 0.14834 0.33500
Ni	Ni	0.41279 0.10998 0.06706 1.23400
Ni	Ni	0.42266 0.09046 0.13917 1.22800
Ni	Ni	0.43228 0.10012 0.24493 1.22800
H 	H 	0.48254 0.07799 0.18956 0.19600
C 	C 	0.68290 0.42446 0.23578 0.33500
H 	H 	0.77806 0.37355 0.19453 0.19600
C 	C 	0.51868 0.14650 0.30620 0.27200
H 	H 	0.41104 0.14920 0.28379 0.24300
C 	C 	0.37625 0.33741 0.07789 0.26900
H 	H 	0.70691 0.44506 0.10033 0.24400
C 	C 	0.76261 0.36547 0.26761 0.30300
H 	H 	0.73363 0.36850 0.18326 0.21100
H 	H 	0.48761 0.12244 0.20082 0.21100
C 	C 	0.49063 0.09348 0.11649 0.30300
O 	O 	0.65780 0.04566 0.09654 -0.22000
O 	O 	0.70898 0.09938 0.15700 -0.29700
O 	O 	0.47709 0.19829 0.28755 -0.22500
O 	O 	0.42336 0.14713 0.22711 -0.29800
H 	H 	0.70026 0.40185 0.07061 0.30600
O 	O 	0.41549 0.16125 0.10404 -0.40500
O 	O 	0.44158 0.14613 0.16432 -0.39500
O 	O 	0.69485 0.10729 0.28009 -0.40600
O 	O 	0.70995 0.41453 0.21980 -0.39500
O 	O 	0.51932 0.16763 0.34666 -0.21800
H 	H 	0.45425 0.15584 0.31350 0.30200
O 	O 	0.48717 0.11923 0.26911 -0.34900
O 	O 	0.35513 0.33678 0.03744 -0.20600
O 	O 	0.40354 0.36892 0.11499 -0.34800
O 	O 	0.40555 0.38561 0.28313 -0.36000
O 	O 	0.78411 0.39178 0.26339 -0.37500
O 	O 	0.47049 0.11721 0.10097 -0.36100
O 	O 	0.46432 0.07198 0.12071 -0.37500
O 	O 	0.46631 0.09903 0.19158 -0.53600
O 	O 	0.75704 0.38979 0.19251 -0.53600
O 	O 	0.43137 0.13355 0.29233 -0.84900
O 	O 	0.72256 0.42473 0.09178 -0.85000
C 	C 	0.44359 0.18812 0.25115 0.24100
C 	C 	0.77404 0.29392 0.18792 -0.01800
C 	C 	0.80269 0.27799 0.17244 -0.04800
C 	C 	0.80154 0.23746 0.16158 0.00800
C 	C 	0.78084 0.21741 0.17765 -0.09200
C 	C 	0.43771 0.24224 0.21462 0.04900
C 	C 	0.43137 0.22761 0.24537 -0.05000
C 	C 	0.43253 0.26050 0.28519 -0.01500
C 	C 	0.43501 0.30257 0.29196 -0.01800
C 	C 	0.43301 0.31763 0.25924 -0.04700
C 	C 	0.77167 0.28557 0.22224 0.00600
C 	C 	0.73409 0.28842 0.15144 0.05300
C 	C 	0.40128 0.29762 0.11678 -0.05700
C 	C 	0.70077 0.30361 0.08727 -0.01100
C 	C 	0.66319 0.29263 0.08641 -0.07600
C 	C 	0.66097 0.27828 0.11821 0.16600
O 	O 	0.62440 0.26747 0.11841 -0.19700
C 	C 	0.61627 0.30174 0.14697 -0.03000
C 	C 	0.69649 0.27643 0.15110 -0.11800
H 	H 	0.81638 0.29198 0.15688 0.04100
H 	H 	0.81389 0.22126 0.13778 0.04700
H 	H 	0.43559 0.25392 0.31419 0.04400
H 	H 	0.44312 0.32557 0.32545 0.05400
H 	H 	0.43025 0.30984 0.12053 0.05000
H 	H 	0.63677 0.29930 0.06506 0.09300
H 	H 	0.58705 0.29278 0.14752 0.05100
H 	H 	0.63961 0.31393 0.18297 0.05500
H 	H 	0.61315 0.32525 0.13338 0.05300
H 	H 	0.69431 0.26703 0.17666 0.08200
C 	C 	0.56218 0.08205 0.19618 -0.01700
C 	C 	0.61387 0.08506 0.16949 0.04900
C 	C 	0.62849 0.09139 0.13874 -0.04800
C 	C 	0.59560 0.42357 0.09891 -0.01500
C 	C 	0.55353 0.42110 0.09215 -0.01700
C 	C 	0.53847 0.08975 0.12486 -0.04700
C 	C 	0.57053 0.08442 0.16186 0.00600
C 	C 	0.56767 0.12200 0.23266 0.05100
C 	C 	0.55846 0.12147 0.26732 -0.05600
C 	C 	0.55248 0.15532 0.29683 -0.01600
C 	C 	0.56346 0.19291 0.29770 -0.07600
C 	C 	0.57781 0.19513 0.26589 0.16500
O 	O 	0.58863 0.23170 0.26570 -0.19700
C 	C 	0.55436 0.23984 0.23714 -0.02900
C 	C 	0.57967 0.15961 0.23301 -0.11800
H 	H 	0.63484 0.04222 0.24635 0.04700
H 	H 	0.60217 0.42051 0.06992 0.04900
H 	H 	0.53053 0.41298 0.05865 0.05700
H 	H 	0.54625 0.42583 0.26356 0.05000
H 	H 	0.55679 0.21933 0.31905 0.08800
H 	H 	0.56332 0.26906 0.23659 0.05000
H 	H 	0.54218 0.21649 0.20115 0.05500
H 	H 	0.53085 0.24296 0.25073 0.05200
H 	H 	0.58907 0.16179 0.20746 0.08200
C 	C 	0.43166 0.17320 0.39834 0.33500
Ni	Ni	0.41279 0.10998 0.31706 1.23400
Ni	Ni	0.42266 0.09046 0.38917 1.22800
Ni	Ni	0.43228 0.10012 0.49493 1.22800
H 	H 	0.48254 0.07798 0.43956 0.19600
C 	C 	0.68290 0.42446 0.48578 0.33500
H 	H 	0.77806 0.37355 0.44452 0.19600
C 	C 	0.51868 0.14650 0.55620 0.27200
H 	H 	0.41104 0.14920 0.53379 0.24300
C 	C 	0.37625 0.33740 0.32789 0.27200
H 	H 	0.70691 0.44506 0.35032 0.24300
C 	C 	0.76261 0.36547 0.51761 0.30300
H 	H 	0.73362 0.36850 0.43326 0.21100
H 	H 	0.48761 0.12243 0.45082 0.21100
C 	C 	0.49063 0.09348 0.36648 0.30300
O 	O 	0.65780 0.04566 0.34654 -0.22400
O 	O 	0.70898 0.09938 0.40700 -0.29800
O 	O 	0.47709 0.19829 0.53755 -0.22500
O 	O 	0.42336 0.14713 0.47711 -0.29800
H 	H 	0.70026 0.40184 0.32061 0.30200
O 	O 	0.41549 0.16125 0.35404 -0.40500
O 	O 	0.44158 0.14613 0.41432 -0.39500
O 	O 	0.69485 0.10729 0.53009 -0.40600
O 	O 	0.70995 0.41453 0.46980 -0.39500
O 	O 	0.51931 0.16763 0.59666 -0.21700
H 	H 	0.45425 0.15584 0.56350 0.30200
O 	O 	0.48717 0.11923 0.51910 -0.34900
O 	O 	0.35513 0.33678 0.28743 -0.21700
O 	O 	0.40354 0.36891 0.36498 -0.34900
O 	O 	0.40555 0.38561 0.53313 -0.36000
O 	O 	0.78410 0.39178 0.51339 -0.37500
O 	O 	0.47049 0.11721 0.35097 -0.36100
O 	O 	0.46432 0.07198 0.37071 -0.37400
O 	O 	0.46631 0.09902 0.44158 -0.53600
O 	O 	0.75703 0.38979 0.44251 -0.53600
O 	O 	0.43137 0.13355 0.54233 -0.84900
O 	O 	0.72256 0.42473 0.34178 -0.84800
C 	C 	0.44359 0.18811 0.50115 0.24100
C 	C 	0.77404 0.29392 0.43792 -0.01700
C 	C 	0.80269 0.27799 0.42244 -0.04800
C 	C 	0.80154 0.23746 0.41158 0.00800
C 	C 	0.78084 0.21741 0.42765 -0.09300
C 	C 	0.43771 0.24224 0.46462 0.04900
C 	C 	0.43136 0.22761 0.49537 -0.05000
C 	C 	0.43253 0.26050 0.53519 -0.01500
C 	C 	0.43500 0.30257 0.54196 -0.01800
C 	C 	0.43301 0.31763 0.50924 -0.04700
C 	C 	0.77167 0.28557 0.47224 0.00600
C 	C 	0.73410 0.28842 0.40144 0.05100
C 	C 	0.40128 0.29762 0.36677 -0.05600
C 	C 	0.70077 0.30361 0.33727 -0.01600
C 	C 	0.66319 0.29263 0.33640 -0.07600
C 	C 	0.66097 0.27828 0.36821 0.16500
O 	O 	0.62440 0.26747 0.36841 -0.19700
C 	C 	0.61627 0.30174 0.39697 -0.02900
C 	C 	0.69649 0.27643 0.40110 -0.11800
H 	H 	0.81638 0.29198 0.40688 0.04000
H 	H 	0.81389 0.22126 0.38779 0.04600
H 	H 	0.43559 0.25392 0.56419 0.04400
H 	H 	0.44311 0.32557 0.57545 0.05400
H 	H 	0.43026 0.30983 0.37053 0.05000
H 	H 	0.63677 0.29930 0.31506 0.08800
H 	H 	0.58705 0.29279 0.39752 0.05000
H 	H 	0.63962 0.31393 0.43297 0.05500
H 	H 	0.61315 0.32525 0.38338 0.05200
H 	H 	0.69431 0.26704 0.42666 0.08200
C 	C 	0.56218 0.08205 0.44618 -0.01700
C 	C 	0.61387 0.08505 0.41949 0.04900
C 	C 	0.62849 0.09139 0.38874 -0.05000
C 	C 	0.59560 0.42356 0.34891 -0.01500
C 	C 	0.55353 0.42109 0.34214 -0.01800
C 	C 	0.53847 0.08975 0.37486 -0.04700
C 	C 	0.57053 0.08442 0.41186 0.00600
C 	C 	0.56767 0.12200 0.48266 0.05100
C 	C 	0.55846 0.12147 0.51732 -0.05600
C 	C 	0.55248 0.15532 0.54682 -0.01600
C 	C 	0.56346 0.19291 0.54769 -0.07600
C 	C 	0.57782 0.19513 0.51589 0.16500
O 	O 	0.58863 0.23170 0.51570 -0.19700
C 	C 	0.55437 0.23984 0.48714 -0.02900
C 	C 	0.57967 0.15961 0.48301 -0.11800
H 	H 	0.63484 0.04222 0.49635 0.04700
H 	H 	0.60217 0.42050 0.31991 0.04400
H 	H 	0.53053 0.41298 0.30865 0.05400
H 	H 	0.54624 0.42583 0.51356 0.05000
H 	H 	0.55679 0.21933 0.56905 0.08800
H 	H 	0.56333 0.26906 0.48659 0.05000
H 	H 	0.54218 0.21649 0.45114 0.05500
H 	H 	0.53085 0.24296 0.50073 0.05200
H 	H 	0.58907 0.16179 0.45746 0.08200
C 	C 	0.43166 0.17320 0.64834 0.33500
Ni	Ni	0.41279 0.10998 0.56706 1.23400
Ni	Ni	0.42266 0.09046 0.63917 1.22800
Ni	Ni	0.43228 0.10012 0.74493 1.22800
H 	H 	0.48254 0.07798 0.68956 0.19600
C 	C 	0.68290 0.42446 0.73578 0.33500
H 	H 	0.77806 0.37355 0.69452 0.19600
C 	C 	0.51868 0.14650 0.80620 0.27200
H 	H 	0.41104 0.14920 0.78379 0.24300
C 	C 	0.37625 0.33740 0.57789 0.27200
H 	H 	0.70691 0.44506 0.60032 0.24300
C 	C 	0.76261 0.36547 0.76761 0.30300
H 	H 	0.73362 0.36850 0.68326 0.21100
H 	H 	0.48761 0.12243 0.70082 0.21100
C 	C 	0.49063 0.09348 0.61648 0.30300
O 	O 	0.65780 0.04566 0.59654 -0.22400
O 	O 	0.70898 0.09938 0.65700 -0.29800
O 	O 	0.47709 0.19829 0.78755 -0.22500
O 	O 	0.42336 0.14713 0.72711 -0.29800
H 	H 	0.70026 0.40185 0.57061 0.30200
O 	O 	0.41549 0.16125 0.60404 -0.40500
O 	O 	0.44158 0.14613 0.66432 -0.39500
O 	O 	0.69486 0.10729 0.78009 -0.40600
O 	O 	0.70996 0.41453 0.71980 -0.39500
O 	O 	0.51932 0.16763 0.84666 -0.21900
H 	H 	0.45425 0.15584 0.81350 0.30200
O 	O 	0.48717 0.11923 0.76910 -0.34900
O 	O 	0.35513 0.33678 0.53743 -0.21700
O 	O 	0.40354 0.36891 0.61498 -0.34900
O 	O 	0.40555 0.38561 0.78313 -0.36000
O 	O 	0.78411 0.39178 0.76339 -0.37500
O 	O 	0.47049 0.11721 0.60097 -0.36000
O 	O 	0.46432 0.07198 0.62071 -0.37400
O 	O 	0.46631 0.09903 0.69158 -0.53600
O 	O 	0.75704 0.38979 0.69251 -0.53600
O 	O 	0.43137 0.13355 0.79233 -0.84900
O 	O 	0.72256 0.42473 0.59178 -0.84800
C 	C 	0.44359 0.18811 0.75115 0.24100
C 	C 	0.77404 0.29392 0.68792 -0.01700
C 	C 	0.80269 0.27799 0.67244 -0.04800
C 	C 	0.80154 0.23746 0.66158 0.00800
C 	C 	0.78084 0.21741 0.67765 -0.09300
C 	C 	0.43771 0.24224 0.71462 0.04900
C 	C 	0.43137 0.22761 0.74537 -0.05000
C 	C 	0.43253 0.26050 0.78519 -0.01500
C 	C 	0.43501 0.30257 0.79196 -0.01800
C 	C 	0.43301 0.31763 0.75924 -0.04700
C 	C 	0.77167 0.28557 0.72224 0.00600
C 	C 	0.73410 0.28842 0.65144 0.05100
C 	C 	0.40128 0.29762 0.61677 -0.05600
C 	C 	0.70077 0.30361 0.58727 -0.01600
C 	C 	0.66319 0.29263 0.58641 -0.07600
C 	C 	0.66097 0.27828 0.61821 0.16500
O 	O 	0.62440 0.26747 0.61841 -0.19700
C 	C 	0.61627 0.30174 0.64697 -0.02900
C 	C 	0.69649 0.27643 0.65110 -0.11800
H 	H 	0.81638 0.29198 0.65688 0.04000
H 	H 	0.81389 0.22126 0.63778 0.04600
H 	H 	0.43560 0.25392 0.81419 0.04400
H 	H 	0.44312 0.32557 0.82545 0.05400
H 	H 	0.43026 0.30983 0.62053 0.05000
H 	H 	0.63677 0.29930 0.56506 0.08800
H 	H 	0.58705 0.29278 0.64752 0.05000
H 	H 	0.63962 0.31393 0.68297 0.05500
H 	H 	0.61315 0.32525 0.63338 0.05200
H 	H 	0.69431 0.26703 0.67666 0.08200
C 	C 	0.56218 0.08205 0.69618 -0.01700
C 	C 	0.61387 0.08505 0.66949 0.04900
C 	C 	0.62849 0.09139 0.63874 -0.05000
C 	C 	0.59560 0.42357 0.59891 -0.01500
C 	C 	0.55353 0.42109 0.59215 -0.01800
C 	C 	0.53848 0.08975 0.62486 -0.04700
C 	C 	0.57053 0.08442 0.66186 0.00600
C 	C 	0.56767 0.12200 0.73266 0.05100
C 	C 	0.55846 0.12147 0.76732 -0.05600
C 	C 	0.55248 0.15532 0.79682 -0.01700
C 	C 	0.56346 0.19291 0.79770 -0.07600
C 	C 	0.57781 0.19513 0.76589 0.16500
O 	O 	0.58863 0.23170 0.76570 -0.19700
C 	C 	0.55436 0.23984 0.73714 -0.02900
C 	C 	0.57967 0.15961 0.73301 -0.11800
H 	H 	0.63484 0.04222 0.74635 0.04700
H 	H 	0.60217 0.42050 0.56991 0.04400
H 	H 	0.53053 0.41298 0.55865 0.05400
H 	H 	0.54625 0.42583 0.76356 0.05000
H 	H 	0.55679 0.21932 0.81905 0.08700
H 	H 	0.56332 0.26906 0.73659 0.05000
H 	H 	0.54218 0.21649 0.70114 0.05500
H 	H 	0.53085 0.24296 0.75073 0.05200
H 	H 	0.58907 0.16179 0.70746 0.08200
C 	C 	0.43166 0.17320 0.89834 0.34000
Ni	Ni	0.41279 0.10998 0.81706 1.23400
Ni	Ni	0.42266 0.09046 0.88917 1.22800
Ni	Ni	0.43228 0.10012 0.99493 1.21200
H 	H 	0.48253 0.07797 0.93955 0.19200
C 	C 	0.68289 0.42446 0.98578 0.29700
H 	H 	0.77805 0.37355 0.94452 0.18900
C 	C 	0.51868 0.14650 0.05620 0.27300
H 	H 	0.41104 0.14920 0.03379 0.25000
C 	C 	0.37625 0.33740 0.82788 0.27300
H 	H 	0.70691 0.44506 0.85032 0.24300
C 	C 	0.76261 0.36547 0.01761 0.29800
H 	H 	0.73361 0.36850 0.93325 0.20700
H 	H 	0.48761 0.12242 0.95081 0.20400
C 	C 	0.49063 0.09348 0.86648 0.30300
O 	O 	0.65780 0.04566 0.84653 -0.22400
O 	O 	0.70898 0.09937 0.90699 -0.29800
O 	O 	0.47709 0.19829 0.03755 -0.23400
O 	O 	0.42336 0.14713 0.97710 -0.33300
H 	H 	0.70026 0.40184 0.82060 0.30200
O 	O 	0.41549 0.16125 0.85404 -0.40700
O 	O 	0.44158 0.14613 0.91432 -0.40000
O 	O 	0.69485 0.10729 0.03009 -0.37500
O 	O 	0.70995 0.41453 0.96980 -0.39500
O 	O 	0.51931 0.16763 0.09666 -0.21700
H 	H 	0.45425 0.15584 0.06350 0.30100
O 	O 	0.48716 0.11923 0.01910 -0.33300
O 	O 	0.35513 0.33677 0.78743 -0.21800
O 	O 	0.40354 0.36891 0.86498 -0.34900
O 	O 	0.40555 0.38561 0.03313 -0.35100
O 	O 	0.78410 0.39178 0.01338 -0.35800
O 	O 	0.47049 0.11721 0.85097 -0.36100
O 	O 	0.46432 0.07198 0.87070 -0.37400
O 	O 	0.46631 0.09902 0.94157 -0.53800
O 	O 	0.75703 0.38980 0.94250 -0.53800
O 	O 	0.43137 0.13355 0.04233 -0.83900
O 	O 	0.72256 0.42473 0.84178 -0.84800
C 	C 	0.44358 0.18812 0.00115 0.31000
C 	C 	0.77404 0.29391 0.93792 -0.00200
C 	C 	0.80269 0.27799 0.92243 -0.06200
C 	C 	0.80154 0.23746 0.91158 0.01700
C 	C 	0.78084 0.21741 0.92765 -0.11200
C 	C 	0.43771 0.24223 0.96462 0.08000
C 	C 	0.43136 0.22761 0.99536 -0.13100
C 	C 	0.43252 0.26050 0.03519 0.04900
C 	C 	0.43500 0.30257 0.04195 -0.04600
C 	C 	0.43301 0.31763 0.00924 0.00400
C 	C 	0.77167 0.28557 0.97224 -0.04800
C 	C 	0.73409 0.28842 0.90144 0.04200
C 	C 	0.40128 0.29762 0.86677 -0.05200
C 	C 	0.70077 0.30360 0.83726 -0.01900
C 	C 	0.66319 0.29263 0.83640 -0.07400
C 	C 	0.66097 0.27828 0.86821 0.16200
O 	O 	0.62440 0.26747 0.86841 -0.19800
C 	C 	0.61627 0.30174 0.89697 -0.02800
C 	C 	0.69649 0.27643 0.90109 -0.11500
H 	H 	0.81638 0.29198 0.90688 0.04200
H 	H 	0.81390 0.22126 0.88779 0.04300
H 	H 	0.43558 0.25392 0.06418 0.03100
H 	H 	0.44311 0.32557 0.07545 0.06200
H 	H 	0.43026 0.30983 0.87052 0.04800
H 	H 	0.63677 0.29930 0.81505 0.08700
H 	H 	0.58705 0.29279 0.89752 0.04800
H 	H 	0.63962 0.31393 0.93296 0.05000
H 	H 	0.61315 0.32525 0.88337 0.05100
H 	H 	0.69431 0.26704 0.92665 0.07600
C 	C 	0.56218 0.08205 0.94618 -0.01300
C 	C 	0.61386 0.08505 0.91949 0.04600
C 	C 	0.62849 0.09138 0.88874 -0.04900
C 	C 	0.59560 0.42356 0.84891 -0.01600
C 	C 	0.55353 0.42109 0.84214 -0.01800
C 	C 	0.53847 0.08974 0.87486 -0.04700
C 	C 	0.57053 0.08442 0.91186 0.00600
C 	C 	0.56767 0.12200 0.98266 0.01900
C 	C 	0.55846 0.12147 0.01731 -0.01400
C 	C 	0.55247 0.15532 0.04682 -0.02300
C 	C 	0.56346 0.19291 0.04769 -0.07500
C 	C 	0.57782 0.19513 0.01589 0.19300
O 	O 	0.58863 0.23170 0.01570 -0.16800
C 	C 	0.55437 0.23984 0.98714 -0.10800
C 	C 	0.57967 0.15960 0.98301 -0.14600
H 	H 	0.63484 0.04222 0.99635 0.03600
H 	H 	0.60217 0.42049 0.81991 0.04400
H 	H 	0.53053 0.41297 0.80865 0.05400
H 	H 	0.54624 0.42583 0.01356 0.05000
H 	H 	0.55679 0.21933 0.06904 0.08900
H 	H 	0.56333 0.26906 0.98659 0.05600
H 	H 	0.54218 0.21649 0.95114 0.06700
H 	H 	0.53086 0.24296 0.00072 0.09000
H 	H 	0.58907 0.16179 0.95745 0.08300
C 	C 	0.43165 0.50654 0.14833 0.33500
Ni	Ni	0.41278 0.44332 0.06705 1.23400
Ni	Ni	0.42265 0.42381 0.13917 1.22800
Ni	Ni	0.43229 0.43345 0.24493 1.22800
H 	H 	0.48254 0.41135 0.18957 0.19600
C 	C 	0.68290 0.75779 0.23578 0.33500
H 	H 	0.77806 0.70689 0.19452 0.19600
C 	C 	0.51869 0.47984 0.30621 0.27200
H 	H 	0.41104 0.48253 0.28378 0.24300
C 	C 	0.37625 0.67074 0.07789 0.26900
H 	H 	0.70691 0.77839 0.10032 0.24400
C 	C 	0.76261 0.69880 0.26761 0.30300
H 	H 	0.73363 0.70183 0.18326 0.21100
H 	H 	0.48760 0.45580 0.20083 0.21100
C 	C 	0.49063 0.42682 0.11649 0.30300
O 	O 	0.65780 0.37901 0.09654 -0.22100
O 	O 	0.70897 0.43272 0.15699 -0.29800
O 	O 	0.47710 0.53163 0.28755 -0.22500
O 	O 	0.42337 0.48046 0.22711 -0.29800
H 	H 	0.70026 0.73518 0.07061 0.30600
O 	O 	0.41549 0.49458 0.10402 -0.40500
O 	O 	0.44157 0.47948 0.16431 -0.39500
O 	O 	0.69485 0.44062 0.28008 -0.40600
O 	O 	0.70996 0.74786 0.21980 -0.39500
O 	O 	0.51932 0.50097 0.34667 -0.21700
H 	H 	0.45425 0.48917 0.31350 0.30200
O 	O 	0.48717 0.45256 0.26911 -0.34900
O 	O 	0.35513 0.67011 0.03743 -0.20600
O 	O 	0.40354 0.70225 0.11498 -0.34800
O 	O 	0.40555 0.71895 0.28313 -0.36000
O 	O 	0.78411 0.72512 0.26339 -0.37500
O 	O 	0.47049 0.45055 0.10097 -0.36100
O 	O 	0.46432 0.40532 0.12071 -0.37500
O 	O 	0.46630 0.43238 0.19159 -0.53600
O 	O 	0.75704 0.72313 0.19251 -0.53600
C 	C 	0.66798 0.41250 0.13295 0.24000
O 	O 	0.43137 0.46688 0.29232 -0.84900
O 	O 	0.72256 0.75806 0.09178 -0.85000
C 	C 	0.44360 0.52145 0.25115 0.24100
C 	C 	0.77404 0.62725 0.18792 -0.01800
C 	C 	0.80269 0.61133 0.17243 -0.04800
C 	C 	0.80153 0.57080 0.16157 0.00900
C 	C 	0.78083 0.55075 0.17764 -0.09200
C 	C 	0.43771 0.57557 0.21462 0.04900
C 	C 	0.43137 0.56094 0.24536 -0.05000
C 	C 	0.43253 0.59383 0.28519 -0.01500
C 	C 	0.43501 0.63591 0.29196 -0.01800
C 	C 	0.43301 0.65096 0.25924 -0.04700
C 	C 	0.77167 0.61891 0.22224 0.00600
C 	C 	0.73409 0.62176 0.15144 0.05300
C 	C 	0.40128 0.63096 0.11677 -0.05700
C 	C 	0.70076 0.63694 0.08727 -0.01100
C 	C 	0.66319 0.62597 0.08640 -0.07600
C 	C 	0.66097 0.61162 0.11821 0.16600
O 	O 	0.62440 0.60081 0.11841 -0.19700
C 	C 	0.61626 0.63508 0.14697 -0.03000
C 	C 	0.69649 0.60977 0.15110 -0.11800
H 	H 	0.81639 0.62532 0.15688 0.04100
H 	H 	0.81389 0.55460 0.13777 0.04700
H 	H 	0.43560 0.58726 0.31419 0.04400
H 	H 	0.44312 0.65890 0.32545 0.05400
H 	H 	0.43025 0.64317 0.12052 0.05000
H 	H 	0.63677 0.63264 0.06505 0.09200
H 	H 	0.58705 0.62612 0.14752 0.05100
H 	H 	0.63961 0.64726 0.18296 0.05500
H 	H 	0.61315 0.65859 0.13338 0.05300
H 	H 	0.69431 0.60037 0.17666 0.08200
C 	C 	0.56218 0.41539 0.19618 -0.01700
C 	C 	0.57811 0.38674 0.21167 -0.04800
C 	C 	0.61864 0.38790 0.22253 0.00800
C 	C 	0.63869 0.40861 0.20646 -0.09300
C 	C 	0.61386 0.41839 0.16949 0.04900
C 	C 	0.62849 0.42473 0.13874 -0.04900
C 	C 	0.59560 0.75690 0.09891 -0.01500
C 	C 	0.55353 0.75443 0.09215 -0.01700
C 	C 	0.53847 0.42308 0.12486 -0.04700
C 	C 	0.57053 0.41776 0.16186 0.00600
C 	C 	0.56767 0.45533 0.23266 0.05100
C 	C 	0.55846 0.45481 0.26732 -0.05600
C 	C 	0.55248 0.48866 0.29683 -0.01600
C 	C 	0.56346 0.52624 0.29770 -0.07600
C 	C 	0.57781 0.52847 0.26589 0.16500
O 	O 	0.58862 0.56504 0.26570 -0.19700
C 	C 	0.55435 0.57317 0.23714 -0.02900
C 	C 	0.57966 0.49294 0.23301 -0.11800
H 	H 	0.56412 0.37304 0.22723 0.04000
H 	H 	0.63484 0.37555 0.24634 0.04600
H 	H 	0.60217 0.75384 0.06991 0.04900
H 	H 	0.53053 0.74632 0.05865 0.05700
H 	H 	0.54625 0.75916 0.26356 0.05000
H 	H 	0.55679 0.55266 0.31905 0.08800
H 	H 	0.56331 0.60239 0.23659 0.05000
H 	H 	0.54217 0.54982 0.20115 0.05500
H 	H 	0.53084 0.57629 0.25073 0.05200
H 	H 	0.58906 0.49513 0.20745 0.08200
C 	C 	0.43165 0.50654 0.39833 0.33500
Ni	Ni	0.41278 0.44332 0.31705 1.23400
Ni	Ni	0.42265 0.42380 0.38917 1.22800
Ni	Ni	0.43229 0.43345 0.49493 1.22800
H 	H 	0.48254 0.41134 0.43957 0.19600
C 	C 	0.68290 0.75779 0.48578 0.33500
H 	H 	0.77806 0.70689 0.44452 0.19600
C 	C 	0.51868 0.47984 0.55621 0.27200
H 	H 	0.41104 0.48253 0.53378 0.24300
C 	C 	0.37626 0.67074 0.32788 0.27200
H 	H 	0.70691 0.77839 0.35032 0.24300
C 	C 	0.76261 0.69880 0.51761 0.30300
H 	H 	0.73362 0.70183 0.43326 0.21100
H 	H 	0.48760 0.45579 0.45083 0.21100
C 	C 	0.49063 0.42682 0.36649 0.30300
O 	O 	0.65780 0.37900 0.34654 -0.22500
O 	O 	0.70897 0.43272 0.40699 -0.29800
O 	O 	0.47709 0.53163 0.53755 -0.22500
O 	O 	0.42337 0.48046 0.47710 -0.29800
H 	H 	0.70026 0.73518 0.32060 0.30200
O 	O 	0.41549 0.49458 0.35403 -0.40600
O 	O 	0.44157 0.47947 0.41431 -0.39500
O 	O 	0.69485 0.44062 0.53008 -0.40500
O 	O 	0.70995 0.74786 0.46980 -0.39500
O 	O 	0.51931 0.50097 0.59666 -0.21700
H 	H 	0.45425 0.48917 0.56350 0.30200
O 	O 	0.48717 0.45256 0.51911 -0.34900
O 	O 	0.35513 0.67011 0.28743 -0.21700
O 	O 	0.40354 0.70225 0.36498 -0.34900
O 	O 	0.40555 0.71895 0.53313 -0.36000
O 	O 	0.78411 0.72511 0.51338 -0.37500
O 	O 	0.47049 0.45055 0.35097 -0.36000
O 	O 	0.46432 0.40532 0.37071 -0.37500
O 	O 	0.46630 0.43238 0.44159 -0.53600
O 	O 	0.75703 0.72313 0.44250 -0.53600
C 	C 	0.66798 0.41250 0.38295 0.24100
O 	O 	0.43137 0.46688 0.54232 -0.84900
O 	O 	0.72256 0.75806 0.34178 -0.84800
C 	C 	0.44359 0.52145 0.50114 0.24100
C 	C 	0.77404 0.62725 0.43792 -0.01700
C 	C 	0.80269 0.61133 0.42243 -0.04800
C 	C 	0.80153 0.57080 0.41157 0.00800
C 	C 	0.78083 0.55075 0.42764 -0.09300
C 	C 	0.43771 0.57557 0.46462 0.04900
C 	C 	0.43137 0.56094 0.49536 -0.05000
C 	C 	0.43253 0.59383 0.53519 -0.01500
C 	C 	0.43501 0.63591 0.54196 -0.01800
C 	C 	0.43301 0.65096 0.50924 -0.04700
C 	C 	0.77167 0.61891 0.47224 0.00600
C 	C 	0.73409 0.62176 0.40144 0.05100
C 	C 	0.40128 0.63095 0.36677 -0.05600
C 	C 	0.70077 0.63694 0.33726 -0.01600
C 	C 	0.66319 0.62596 0.33640 -0.07600
C 	C 	0.66097 0.61162 0.36821 0.16500
O 	O 	0.62440 0.60081 0.36841 -0.19700
C 	C 	0.61627 0.63508 0.39697 -0.02900
C 	C 	0.69649 0.60977 0.40109 -0.11800
H 	H 	0.81639 0.62532 0.40688 0.04000
H 	H 	0.81389 0.55460 0.38777 0.04600
H 	H 	0.43560 0.58726 0.56418 0.04400
H 	H 	0.44312 0.65890 0.57545 0.05400
H 	H 	0.43025 0.64316 0.37052 0.05000
H 	H 	0.63677 0.63263 0.31505 0.08800
H 	H 	0.58705 0.62612 0.39752 0.05000
H 	H 	0.63962 0.64727 0.43296 0.05500
H 	H 	0.61315 0.65859 0.38337 0.05200
H 	H 	0.69431 0.60038 0.42666 0.08200
C 	C 	0.56218 0.41539 0.44618 -0.01700
C 	C 	0.57811 0.38674 0.46167 -0.04800
C 	C 	0.61864 0.38790 0.47253 0.00800
C 	C 	0.63869 0.40861 0.45647 -0.09300
C 	C 	0.61386 0.41839 0.41949 0.04900
C 	C 	0.62849 0.42473 0.38874 -0.05000
C 	C 	0.59560 0.75690 0.34891 -0.01500
C 	C 	0.55353 0.75442 0.34214 -0.01800
C 	C 	0.53847 0.42308 0.37486 -0.04700
C 	C 	0.57053 0.41776 0.41186 0.00500
C 	C 	0.56767 0.45533 0.48266 0.05100
C 	C 	0.55846 0.45481 0.51732 -0.05600
C 	C 	0.55248 0.48866 0.54683 -0.01600
C 	C 	0.56346 0.52624 0.54770 -0.07600
C 	C 	0.57781 0.52847 0.51589 0.16500
O 	O 	0.58862 0.56504 0.51570 -0.19700
C 	C 	0.55436 0.57317 0.48714 -0.02900
C 	C 	0.57967 0.49294 0.48301 -0.11800
H 	H 	0.56412 0.37304 0.47723 0.04000
H 	H 	0.63484 0.37555 0.49634 0.04600
H 	H 	0.60217 0.75383 0.31991 0.04400
H 	H 	0.53053 0.74631 0.30865 0.05400
H 	H 	0.54625 0.75916 0.51356 0.05000
H 	H 	0.55679 0.55266 0.56905 0.08800
H 	H 	0.56331 0.60239 0.48659 0.05000
H 	H 	0.54217 0.54982 0.45114 0.05500
H 	H 	0.53085 0.57629 0.50073 0.05200
H 	H 	0.58906 0.49513 0.45745 0.08200
C 	C 	0.43165 0.50654 0.64833 0.33500
Ni	Ni	0.41278 0.44332 0.56705 1.23400
Ni	Ni	0.42265 0.42381 0.63917 1.22800
Ni	Ni	0.43229 0.43345 0.74493 1.22800
H 	H 	0.48254 0.41135 0.68957 0.19600
C 	C 	0.68290 0.75779 0.73578 0.33500
H 	H 	0.77806 0.70689 0.69452 0.19600
C 	C 	0.51869 0.47984 0.80621 0.27200
H 	H 	0.41104 0.48253 0.78378 0.24300
C 	C 	0.37625 0.67074 0.57789 0.27200
H 	H 	0.70691 0.77839 0.60032 0.24300
C 	C 	0.76261 0.69880 0.76761 0.30300
H 	H 	0.73362 0.70183 0.68326 0.21100
H 	H 	0.48760 0.45579 0.70083 0.21100
C 	C 	0.49063 0.42682 0.61649 0.30300
O 	O 	0.65780 0.37900 0.59654 -0.22500
O 	O 	0.70897 0.43272 0.65699 -0.29800
O 	O 	0.47710 0.53163 0.78755 -0.22500
O 	O 	0.42337 0.48046 0.72710 -0.29800
H 	H 	0.70026 0.73518 0.57060 0.30200
O 	O 	0.41549 0.49458 0.60403 -0.40600
O 	O 	0.44157 0.47947 0.66431 -0.39500
O 	O 	0.69485 0.44062 0.78008 -0.40500
O 	O 	0.70996 0.74786 0.71980 -0.39500
O 	O 	0.51932 0.50097 0.84667 -0.21900
H 	H 	0.45425 0.48917 0.81350 0.30200
O 	O 	0.48717 0.45256 0.76911 -0.34900
O 	O 	0.35513 0.67011 0.53743 -0.21700
O 	O 	0.40354 0.70225 0.61498 -0.34900
O 	O 	0.40555 0.71895 0.78313 -0.36000
O 	O 	0.78411 0.72511 0.76339 -0.37500
O 	O 	0.47049 0.45055 0.60097 -0.36000
O 	O 	0.46432 0.40532 0.62071 -0.37500
O 	O 	0.46630 0.43238 0.69159 -0.53600
O 	O 	0.75704 0.72313 0.69251 -0.53600
C 	C 	0.66798 0.41250 0.63295 0.24100
O 	O 	0.43137 0.46688 0.79232 -0.84900
O 	O 	0.72256 0.75806 0.59178 -0.84800
C 	C 	0.44360 0.52145 0.75115 0.24100
C 	C 	0.77404 0.62725 0.68792 -0.01700
C 	C 	0.80269 0.61133 0.67243 -0.04800
C 	C 	0.80153 0.57080 0.66157 0.00800
C 	C 	0.78083 0.55075 0.67764 -0.09300
C 	C 	0.43771 0.57557 0.71462 0.04900
C 	C 	0.43137 0.56094 0.74536 -0.05000
C 	C 	0.43254 0.59383 0.78519 -0.01500
C 	C 	0.43501 0.63591 0.79196 -0.01800
C 	C 	0.43302 0.65096 0.75924 -0.04700
C 	C 	0.77167 0.61891 0.72224 0.00600
C 	C 	0.73409 0.62176 0.65144 0.05100
C 	C 	0.40128 0.63095 0.61677 -0.05600
C 	C 	0.70077 0.63694 0.58726 -0.01600
C 	C 	0.66319 0.62596 0.58640 -0.07500
C 	C 	0.66097 0.61162 0.61821 0.16500
O 	O 	0.62440 0.60081 0.61841 -0.19700
C 	C 	0.61627 0.63508 0.64697 -0.02900
C 	C 	0.69649 0.60977 0.65109 -0.11800
H 	H 	0.81639 0.62532 0.65688 0.04000
H 	H 	0.81389 0.55460 0.63777 0.04600
H 	H 	0.43560 0.58726 0.81419 0.04400
H 	H 	0.44312 0.65890 0.82545 0.05400
H 	H 	0.43025 0.64316 0.62052 0.05000
H 	H 	0.63677 0.63264 0.56505 0.08800
H 	H 	0.58705 0.62612 0.64752 0.05000
H 	H 	0.63961 0.64727 0.68296 0.05500
H 	H 	0.61315 0.65859 0.63338 0.05200
H 	H 	0.69431 0.60037 0.67666 0.08200
C 	C 	0.56218 0.41539 0.69618 -0.01700
C 	C 	0.57811 0.38674 0.71167 -0.04800
C 	C 	0.61864 0.38790 0.72253 0.00800
C 	C 	0.63869 0.40861 0.70647 -0.09300
C 	C 	0.61386 0.41839 0.66949 0.04900
C 	C 	0.62849 0.42473 0.63874 -0.05000
C 	C 	0.59560 0.75690 0.59891 -0.01500
C 	C 	0.55353 0.75442 0.59214 -0.01800
C 	C 	0.53847 0.42308 0.62486 -0.04700
C 	C 	0.57053 0.41776 0.66186 0.00600
C 	C 	0.56767 0.45533 0.73266 0.05100
C 	C 	0.55846 0.45481 0.76732 -0.05600
C 	C 	0.55248 0.48866 0.79683 -0.01700
C 	C 	0.56346 0.52624 0.79770 -0.07600
C 	C 	0.57781 0.52847 0.76589 0.16500
O 	O 	0.58862 0.56504 0.76570 -0.19700
C 	C 	0.55435 0.57317 0.73714 -0.02900
C 	C 	0.57966 0.49294 0.73301 -0.11800
H 	H 	0.56412 0.37304 0.72723 0.04000
H 	H 	0.63484 0.37555 0.74634 0.04600
H 	H 	0.60217 0.75383 0.56991 0.04400
H 	H 	0.53053 0.74631 0.55865 0.05400
H 	H 	0.54625 0.75916 0.76356 0.05000
H 	H 	0.55680 0.55266 0.81905 0.08700
H 	H 	0.56331 0.60239 0.73659 0.05000
H 	H 	0.54217 0.54982 0.70114 0.05500
H 	H 	0.53084 0.57629 0.75073 0.05200
H 	H 	0.58906 0.49513 0.70745 0.08200
C 	C 	0.43165 0.50653 0.89833 0.34000
Ni	Ni	0.41278 0.44332 0.81705 1.23400
Ni	Ni	0.42265 0.42380 0.88917 1.22800
Ni	Ni	0.43228 0.43345 0.99493 1.21200
H 	H 	0.48253 0.41134 0.93956 0.19200
C 	C 	0.68289 0.75779 0.98578 0.29700
H 	H 	0.77805 0.70688 0.94451 0.18900
C 	C 	0.51868 0.47984 0.05620 0.27300
H 	H 	0.41104 0.48253 0.03378 0.25100
C 	C 	0.37626 0.67073 0.82788 0.27300
H 	H 	0.70691 0.77839 0.85032 0.24300
C 	C 	0.76261 0.69880 0.01761 0.29800
H 	H 	0.73361 0.70184 0.93325 0.20700
H 	H 	0.48760 0.45578 0.95082 0.20400
C 	C 	0.49063 0.42682 0.86648 0.30300
O 	O 	0.65780 0.37900 0.84653 -0.22500
O 	O 	0.70897 0.43272 0.90699 -0.29700
O 	O 	0.47709 0.53163 0.03755 -0.23400
O 	O 	0.42336 0.48046 0.97710 -0.33300
H 	H 	0.70026 0.73518 0.82060 0.30200
O 	O 	0.41549 0.49458 0.85403 -0.40700
O 	O 	0.44158 0.47947 0.91431 -0.40000
O 	O 	0.69485 0.44062 0.03008 -0.37500
O 	O 	0.70995 0.74786 0.96980 -0.39500
O 	O 	0.51931 0.50097 0.09666 -0.21700
H 	H 	0.45425 0.48917 0.06349 0.30100
O 	O 	0.48717 0.45256 0.01911 -0.33300
O 	O 	0.35513 0.67011 0.78743 -0.21800
O 	O 	0.40354 0.70224 0.86498 -0.34900
O 	O 	0.40555 0.71895 0.03313 -0.35100
O 	O 	0.78410 0.72512 0.01338 -0.35800
O 	O 	0.47049 0.45055 0.85097 -0.36100
O 	O 	0.46432 0.40532 0.87071 -0.37500
O 	O 	0.46630 0.43237 0.94158 -0.53800
O 	O 	0.75703 0.72313 0.94250 -0.53800
C 	C 	0.66798 0.41249 0.88295 0.24000
O 	O 	0.43137 0.46688 0.04232 -0.83900
O 	O 	0.72256 0.75806 0.84178 -0.84800
C 	C 	0.44359 0.52145 0.00114 0.31000
C 	C 	0.77404 0.62725 0.93792 -0.00200
C 	C 	0.80269 0.61133 0.92243 -0.06200
C 	C 	0.80153 0.57079 0.91158 0.01700
C 	C 	0.78083 0.55075 0.92764 -0.11200
C 	C 	0.43771 0.57557 0.96461 0.08000
C 	C 	0.43136 0.56094 0.99536 -0.13100
C 	C 	0.43252 0.59383 0.03519 0.04800
C 	C 	0.43500 0.63591 0.04195 -0.04600
C 	C 	0.43301 0.65096 0.00924 0.00400
C 	C 	0.77167 0.61891 0.97224 -0.04700
C 	C 	0.73409 0.62176 0.90144 0.04200
C 	C 	0.40128 0.63095 0.86677 -0.05200
C 	C 	0.70077 0.63694 0.83726 -0.01900
C 	C 	0.66319 0.62596 0.83640 -0.07400
C 	C 	0.66097 0.61162 0.86821 0.16200
O 	O 	0.62440 0.60081 0.86840 -0.19800
C 	C 	0.61627 0.63508 0.89696 -0.02800
C 	C 	0.69649 0.60977 0.90109 -0.11500
H 	H 	0.81639 0.62532 0.90688 0.04200
H 	H 	0.81389 0.55460 0.88778 0.04300
H 	H 	0.43559 0.58726 0.06418 0.03100
H 	H 	0.44311 0.65890 0.07545 0.06200
H 	H 	0.43025 0.64316 0.87052 0.04800
H 	H 	0.63677 0.63263 0.81505 0.08700
H 	H 	0.58705 0.62613 0.89751 0.04800
H 	H 	0.63961 0.64727 0.93296 0.05000
H 	H 	0.61315 0.65859 0.88337 0.05100
H 	H 	0.69431 0.60038 0.92665 0.07600
C 	C 	0.56218 0.41538 0.94618 -0.01300
C 	C 	0.57811 0.38674 0.96167 -0.05300
C 	C 	0.61864 0.38790 0.97254 0.00200
C 	C 	0.63868 0.40860 0.95647 -0.08600
C 	C 	0.61386 0.41839 0.91948 0.04500
C 	C 	0.62849 0.42472 0.88873 -0.05000
C 	C 	0.59560 0.75689 0.84891 -0.01600
C 	C 	0.55353 0.75442 0.84214 -0.01800
C 	C 	0.53847 0.42308 0.87486 -0.04700
C 	C 	0.57053 0.41776 0.91186 0.00500
C 	C 	0.56767 0.45533 0.98266 0.01900
C 	C 	0.55846 0.45481 0.01732 -0.01400
C 	C 	0.55247 0.48866 0.04682 -0.02300
C 	C 	0.56346 0.52624 0.04769 -0.07500
C 	C 	0.57781 0.52847 0.01589 0.19300
O 	O 	0.58862 0.56504 0.01570 -0.16800
C 	C 	0.55436 0.57317 0.98714 -0.10800
C 	C 	0.57967 0.49294 0.98301 -0.14600
H 	H 	0.56412 0.37304 0.97722 0.03200
H 	H 	0.63484 0.37555 0.99634 0.03600
H 	H 	0.60217 0.75383 0.81991 0.04400
H 	H 	0.53053 0.74631 0.80865 0.05400
H 	H 	0.54624 0.75916 0.01355 0.05000
H 	H 	0.55679 0.55266 0.06905 0.08900
H 	H 	0.56332 0.60239 0.98659 0.05600
H 	H 	0.54217 0.54982 0.95114 0.06700
H 	H 	0.53085 0.57629 0.00073 0.09000
H 	H 	0.58906 0.49512 0.95745 0.08300
C 	C 	0.43165 0.83987 0.14833 0.33500
Ni	Ni	0.41278 0.77665 0.06705 1.23400
Ni	Ni	0.42265 0.75714 0.13917 1.22800
Ni	Ni	0.43229 0.76678 0.24493 1.22800
H 	H 	0.48254 0.74469 0.18957 0.19600
C 	C 	0.51869 0.81317 0.30621 0.27200
H 	H 	0.41104 0.81586 0.28378 0.24300
C 	C 	0.37625 0.00406 0.07788 0.27400
C 	C 	0.76261 0.03214 0.26761 0.30700
H 	H 	0.73360 0.03517 0.18325 0.21200
H 	H 	0.48760 0.78913 0.20083 0.21100
C 	C 	0.49063 0.76015 0.11649 0.30300
O 	O 	0.65780 0.71234 0.09654 -0.22100
O 	O 	0.70897 0.76606 0.15699 -0.29800
O 	O 	0.47710 0.86496 0.28755 -0.22500
O 	O 	0.42337 0.81379 0.22710 -0.29800
H 	H 	0.70027 0.06851 0.07061 0.30600
O 	O 	0.41549 0.82792 0.10402 -0.40500
O 	O 	0.44157 0.81281 0.16430 -0.39500
O 	O 	0.69485 0.77395 0.28008 -0.40500
O 	O 	0.51932 0.83430 0.34666 -0.21800
H 	H 	0.45425 0.82251 0.31349 0.30200
O 	O 	0.48718 0.78589 0.26911 -0.34900
O 	O 	0.35512 0.00344 0.03743 -0.20500
O 	O 	0.40354 0.03557 0.11498 -0.34800
O 	O 	0.40555 0.05228 0.28313 -0.36100
O 	O 	0.78410 0.05845 0.26339 -0.37500
O 	O 	0.47049 0.78388 0.10097 -0.36100
O 	O 	0.46432 0.73866 0.12071 -0.37500
O 	O 	0.46630 0.76572 0.19159 -0.53600
C 	C 	0.66798 0.74584 0.13295 0.24000
O 	O 	0.43137 0.80021 0.29232 -0.84800
C 	C 	0.44360 0.85478 0.25114 0.24000
C 	C 	0.77404 0.96059 0.18792 -0.01900
C 	C 	0.80269 0.94467 0.17244 -0.04700
C 	C 	0.80153 0.90413 0.16157 0.00800
C 	C 	0.78083 0.88408 0.17764 -0.09200
C 	C 	0.43771 0.90890 0.21461 0.04900
C 	C 	0.43137 0.89428 0.24536 -0.04900
C 	C 	0.43254 0.92716 0.28519 -0.01600
C 	C 	0.43501 0.96924 0.29196 -0.01700
C 	C 	0.43302 0.98430 0.25924 -0.05100
C 	C 	0.77167 0.95224 0.22224 0.00700
C 	C 	0.73409 0.95509 0.15144 0.05100
C 	C 	0.40127 0.96428 0.11676 -0.05500
C 	C 	0.70076 0.97027 0.08726 -0.01600
C 	C 	0.66318 0.95930 0.08640 -0.07500
C 	C 	0.66096 0.94495 0.11821 0.16500
O 	O 	0.62439 0.93414 0.11841 -0.19700
C 	C 	0.61626 0.96842 0.14697 -0.02900
C 	C 	0.69649 0.94310 0.15110 -0.11800
H 	H 	0.81639 0.95866 0.15689 0.04000
H 	H 	0.81389 0.88794 0.13777 0.04700
H 	H 	0.43561 0.92059 0.31419 0.04400
H 	H 	0.44313 0.99224 0.32545 0.05300
H 	H 	0.43025 0.97648 0.12051 0.04900
H 	H 	0.63677 0.96597 0.06505 0.09100
H 	H 	0.58705 0.95946 0.14752 0.05000
H 	H 	0.61315 0.99193 0.13338 0.05200
H 	H 	0.69431 0.93372 0.17666 0.08200
C 	C 	0.56218 0.74872 0.19618 -0.01700
C 	C 	0.57811 0.72008 0.21167 -0.04800
C 	C 	0.61864 0.72124 0.22253 0.00800
C 	C 	0.63869 0.74194 0.20646 -0.09300
C 	C 	0.61386 0.75173 0.16948 0.04900
C 	C 	0.62849 0.75806 0.13874 -0.04900
C 	C 	0.53847 0.75642 0.12486 -0.04700
C 	C 	0.57053 0.75110 0.16186 0.00600
C 	C 	0.56767 0.78867 0.23266 0.05100
C 	C 	0.55846 0.78814 0.26732 -0.05600
C 	C 	0.55248 0.82199 0.29683 -0.01600
C 	C 	0.56346 0.85958 0.29770 -0.07600
C 	C 	0.57781 0.86180 0.26589 0.16500
O 	O 	0.58862 0.89837 0.26570 -0.19700
C 	C 	0.55435 0.90651 0.23714 -0.02900
C 	C 	0.57966 0.82628 0.23301 -0.11800
H 	H 	0.56412 0.70637 0.22722 0.04000
H 	H 	0.63484 0.70889 0.24634 0.04600
H 	H 	0.55680 0.88599 0.31905 0.08800
H 	H 	0.56330 0.93573 0.23659 0.05000
H 	H 	0.54216 0.88316 0.20114 0.05500
H 	H 	0.53084 0.90962 0.25073 0.05200
H 	H 	0.58906 0.82846 0.20745 0.08200
C 	C 	0.43165 0.83987 0.39833 0.33500
Ni	Ni	0.41278 0.77665 0.31705 1.23400
Ni	Ni	0.42265 0.75714 0.38917 1.22800
Ni	Ni	0.43229 0.76678 0.49493 1.22800
H 	H 	0.48254 0.74468 0.43957 0.19600
C 	C 	0.51869 0.81317 0.55621 0.27200
H 	H 	0.41104 0.81586 0.53378 0.24300
C 	C 	0.37625 0.00406 0.32788 0.27700
C 	C 	0.76261 0.03214 0.51761 0.30700
H 	H 	0.73360 0.03517 0.43325 0.21200
H 	H 	0.48760 0.78912 0.45083 0.21100
C 	C 	0.49063 0.76015 0.36648 0.30300
O 	O 	0.65780 0.71233 0.34653 -0.22500
O 	O 	0.70897 0.76605 0.40699 -0.29800
O 	O 	0.47710 0.86496 0.53755 -0.22500
O 	O 	0.42337 0.81379 0.47710 -0.29800
H 	H 	0.70027 0.06851 0.32061 0.30200
O 	O 	0.41549 0.82792 0.35402 -0.40500
O 	O 	0.44157 0.81281 0.41430 -0.39500
O 	O 	0.69485 0.77395 0.53008 -0.40600
O 	O 	0.51931 0.83430 0.59666 -0.21700
H 	H 	0.45425 0.82251 0.56349 0.30200
O 	O 	0.48717 0.78589 0.51911 -0.34900
O 	O 	0.35513 0.00344 0.28743 -0.21700
O 	O 	0.40354 0.03557 0.36497 -0.34900
O 	O 	0.40555 0.05228 0.53313 -0.36100
O 	O 	0.78410 0.05845 0.51338 -0.37500
O 	O 	0.47049 0.78388 0.35097 -0.36000
O 	O 	0.46432 0.73865 0.37071 -0.37500
O 	O 	0.46630 0.76571 0.44158 -0.53600
C 	C 	0.66798 0.74583 0.38295 0.24100
O 	O 	0.43137 0.80021 0.54232 -0.84800
C 	C 	0.44360 0.85478 0.50114 0.24000
C 	C 	0.77404 0.96059 0.43792 -0.01800
C 	C 	0.80269 0.94467 0.42244 -0.04800
C 	C 	0.80153 0.90413 0.41157 0.00800
C 	C 	0.78083 0.88408 0.42764 -0.09300
C 	C 	0.43771 0.90890 0.46461 0.04900
C 	C 	0.43137 0.89428 0.49536 -0.04900
C 	C 	0.43254 0.92716 0.53519 -0.01600
C 	C 	0.43501 0.96924 0.54196 -0.01700
C 	C 	0.43301 0.98430 0.50924 -0.05100
C 	C 	0.77167 0.95224 0.47224 0.00700
C 	C 	0.73409 0.95509 0.40144 0.05000
C 	C 	0.40127 0.96428 0.36676 -0.05500
C 	C 	0.70076 0.97027 0.33725 -0.02200
C 	C 	0.66318 0.95929 0.33640 -0.07400
C 	C 	0.66096 0.94495 0.36821 0.16400
O 	O 	0.62439 0.93415 0.36841 -0.19700
C 	C 	0.61626 0.96842 0.39697 -0.02900
C 	C 	0.69649 0.94310 0.40110 -0.11800
H 	H 	0.81639 0.95866 0.40689 0.04000
H 	H 	0.81389 0.88794 0.38777 0.04600
H 	H 	0.43560 0.92059 0.56419 0.04400
H 	H 	0.44312 0.99224 0.57545 0.05300
H 	H 	0.43025 0.97648 0.37051 0.04800
H 	H 	0.63677 0.96596 0.31504 0.08600
H 	H 	0.58705 0.95947 0.39752 0.05000
H 	H 	0.61315 0.99193 0.38337 0.05100
H 	H 	0.69431 0.93372 0.42666 0.08200
C 	C 	0.56218 0.74872 0.44618 -0.01700
C 	C 	0.57811 0.72008 0.46167 -0.04800
C 	C 	0.61864 0.72124 0.47253 0.00800
C 	C 	0.63869 0.74194 0.45646 -0.09300
C 	C 	0.61386 0.75172 0.41948 0.04900
C 	C 	0.62849 0.75806 0.38873 -0.05000
C 	C 	0.53847 0.75642 0.37486 -0.04700
C 	C 	0.57053 0.75109 0.41186 0.00500
C 	C 	0.56767 0.78867 0.48266 0.05100
C 	C 	0.55846 0.78814 0.51732 -0.05600
C 	C 	0.55248 0.82199 0.54683 -0.01600
C 	C 	0.56346 0.85958 0.54770 -0.07600
C 	C 	0.57781 0.86180 0.51589 0.16500
O 	O 	0.58862 0.89837 0.51570 -0.19700
C 	C 	0.55435 0.90651 0.48714 -0.02900
C 	C 	0.57966 0.82628 0.48301 -0.11800
H 	H 	0.56412 0.70637 0.47722 0.04000
H 	H 	0.63484 0.70889 0.49634 0.04600
H 	H 	0.55679 0.88599 0.56905 0.08800
H 	H 	0.56331 0.93573 0.48659 0.05000
H 	H 	0.54216 0.88316 0.45114 0.05500
H 	H 	0.53084 0.90962 0.50073 0.05200
H 	H 	0.58906 0.82846 0.45745 0.08200
C 	C 	0.43165 0.83987 0.64833 0.33500
Ni	Ni	0.41278 0.77665 0.56705 1.23400
Ni	Ni	0.42265 0.75714 0.63917 1.22800
Ni	Ni	0.43229 0.76678 0.74493 1.22800
H 	H 	0.48254 0.74468 0.68957 0.19600
C 	C 	0.51869 0.81317 0.80621 0.27200
H 	H 	0.41104 0.81586 0.78378 0.24300
C 	C 	0.37625 0.00406 0.57788 0.27700
C 	C 	0.76261 0.03214 0.76761 0.30700
H 	H 	0.73360 0.03517 0.68325 0.21200
H 	H 	0.48760 0.78913 0.70083 0.21100
C 	C 	0.49063 0.76015 0.61648 0.30300
O 	O 	0.65780 0.71234 0.59654 -0.22500
O 	O 	0.70897 0.76606 0.65699 -0.29800
O 	O 	0.47710 0.86496 0.78755 -0.22500
O 	O 	0.42337 0.81379 0.72710 -0.29800
H 	H 	0.70027 0.06851 0.57061 0.30200
O 	O 	0.41549 0.82792 0.60402 -0.40500
O 	O 	0.44157 0.81281 0.66430 -0.39500
O 	O 	0.69485 0.77395 0.78008 -0.40500
O 	O 	0.51932 0.83430 0.84666 -0.21900
H 	H 	0.45425 0.82251 0.81349 0.30200
O 	O 	0.48717 0.78589 0.76911 -0.34900
O 	O 	0.35513 0.00344 0.53743 -0.21700
O 	O 	0.40354 0.03557 0.61498 -0.34900
O 	O 	0.40555 0.05228 0.78313 -0.36100
O 	O 	0.78410 0.05845 0.76338 -0.37500
O 	O 	0.47049 0.78388 0.60097 -0.36000
O 	O 	0.46432 0.73865 0.62071 -0.37500
O 	O 	0.46630 0.76571 0.69159 -0.53600
C 	C 	0.66798 0.74583 0.63295 0.24100
O 	O 	0.43137 0.80021 0.79232 -0.84800
C 	C 	0.44360 0.85478 0.75114 0.24100
C 	C 	0.77404 0.96059 0.68792 -0.01800
C 	C 	0.80269 0.94467 0.67244 -0.04800
C 	C 	0.80153 0.90413 0.66157 0.00800
C 	C 	0.78083 0.88408 0.67764 -0.09200
C 	C 	0.43771 0.90890 0.71461 0.04900
C 	C 	0.43137 0.89428 0.74536 -0.04900
C 	C 	0.43254 0.92716 0.78519 -0.01600
C 	C 	0.43502 0.96924 0.79196 -0.01700
C 	C 	0.43302 0.98430 0.75924 -0.05100
C 	C 	0.77167 0.95224 0.72224 0.00600
C 	C 	0.73409 0.95509 0.65144 0.05000
C 	C 	0.40127 0.96428 0.61676 -0.05500
C 	C 	0.70076 0.97027 0.58726 -0.02100
C 	C 	0.66318 0.95929 0.58640 -0.07400
C 	C 	0.66096 0.94495 0.61821 0.16400
O 	O 	0.62439 0.93415 0.61841 -0.19700
C 	C 	0.61626 0.96842 0.64697 -0.02900
C 	C 	0.69649 0.94310 0.65110 -0.11800
H 	H 	0.81639 0.95866 0.65689 0.04000
H 	H 	0.81389 0.88794 0.63777 0.04600
H 	H 	0.43561 0.92059 0.81419 0.04400
H 	H 	0.44313 0.99224 0.82546 0.05300
H 	H 	0.43025 0.97648 0.62051 0.04800
H 	H 	0.63677 0.96597 0.56505 0.08600
H 	H 	0.58705 0.95947 0.64752 0.05000
H 	H 	0.61315 0.99193 0.63337 0.05100
H 	H 	0.69431 0.93372 0.67666 0.08200
C 	C 	0.56218 0.74872 0.69618 -0.01700
C 	C 	0.57811 0.72008 0.71167 -0.04800
C 	C 	0.61864 0.72124 0.72253 0.00800
C 	C 	0.63869 0.74194 0.70646 -0.09300
C 	C 	0.61386 0.75172 0.66948 0.04900
C 	C 	0.62849 0.75806 0.63873 -0.05000
C 	C 	0.53847 0.75642 0.62486 -0.04700
C 	C 	0.57053 0.75109 0.66186 0.00600
C 	C 	0.56767 0.78867 0.73266 0.05100
C 	C 	0.55846 0.78814 0.76732 -0.05600
C 	C 	0.55248 0.82199 0.79683 -0.01700
C 	C 	0.56346 0.85958 0.79770 -0.07600
C 	C 	0.57781 0.86180 0.76589 0.16500
O 	O 	0.58862 0.89837 0.76570 -0.19700
C 	C 	0.55435 0.90650 0.73714 -0.02900
C 	C 	0.57966 0.82628 0.73301 -0.11800
H 	H 	0.56412 0.70637 0.72722 0.04000
H 	H 	0.63484 0.70889 0.74634 0.04600
H 	H 	0.55680 0.88599 0.81905 0.08700
H 	H 	0.56330 0.93572 0.73659 0.05000
H 	H 	0.54216 0.88315 0.70114 0.05500
H 	H 	0.53084 0.90962 0.75073 0.05200
H 	H 	0.58906 0.82846 0.70745 0.08200
C 	C 	0.43165 0.83987 0.89833 0.34000
Ni	Ni	0.41278 0.77665 0.81705 1.23400
Ni	Ni	0.42265 0.75713 0.88917 1.22800
Ni	Ni	0.43228 0.76678 0.99492 1.21200
H 	H 	0.48254 0.74467 0.93956 0.19100
C 	C 	0.51868 0.81317 0.05620 0.27300
H 	H 	0.41104 0.81586 0.03378 0.25000
C 	C 	0.37625 0.00406 0.82787 0.27700
C 	C 	0.76261 0.03214 0.01761 0.30200
H 	H 	0.73359 0.03518 0.93324 0.20800
H 	H 	0.48760 0.78912 0.95082 0.20400
C 	C 	0.49063 0.76015 0.86648 0.30300
O 	O 	0.65780 0.71233 0.84653 -0.22500
O 	O 	0.70897 0.76605 0.90699 -0.29700
O 	O 	0.47709 0.86496 0.03755 -0.23400
O 	O 	0.42336 0.81379 0.97710 -0.33200
H 	H 	0.70027 0.06851 0.82061 0.30200
O 	O 	0.41549 0.82792 0.85402 -0.40600
O 	O 	0.44158 0.81281 0.91431 -0.40000
O 	O 	0.69485 0.77395 0.03008 -0.37600
O 	O 	0.51931 0.83430 0.09666 -0.21700
H 	H 	0.45425 0.82251 0.06349 0.30100
O 	O 	0.48717 0.78590 0.01910 -0.33300
O 	O 	0.35512 0.00344 0.78742 -0.21700
O 	O 	0.40354 0.03557 0.86497 -0.34900
O 	O 	0.40555 0.05228 0.03313 -0.35200
O 	O 	0.78410 0.05845 0.01338 -0.35900
O 	O 	0.47049 0.78388 0.85097 -0.36100
O 	O 	0.46432 0.73865 0.87071 -0.37500
O 	O 	0.46630 0.76571 0.94158 -0.53800
C 	C 	0.66798 0.74583 0.88295 0.24000
O 	O 	0.43137 0.80021 0.04232 -0.83900
C 	C 	0.44359 0.85478 0.00114 0.30900
C 	C 	0.77404 0.96059 0.93792 -0.00300
C 	C 	0.80269 0.94466 0.92243 -0.06200
C 	C 	0.80153 0.90413 0.91157 0.01700
C 	C 	0.78083 0.88408 0.92764 -0.11100
C 	C 	0.43771 0.90890 0.96461 0.07900
C 	C 	0.43137 0.89428 0.99536 -0.12900
C 	C 	0.43253 0.92716 0.03519 0.04700
C 	C 	0.43501 0.96924 0.04195 -0.04500
C 	C 	0.43301 0.98430 0.00924 -0.00100
C 	C 	0.77167 0.95224 0.97224 -0.04500
C 	C 	0.73409 0.95509 0.90143 0.04200
C 	C 	0.40127 0.96427 0.86676 -0.05100
C 	C 	0.70076 0.97026 0.83725 -0.02300
C 	C 	0.66318 0.95929 0.83639 -0.07300
C 	C 	0.66096 0.94495 0.86821 0.16100
O 	O 	0.62439 0.93415 0.86840 -0.19800
C 	C 	0.61626 0.96842 0.89696 -0.02700
C 	C 	0.69648 0.94310 0.90109 -0.11500
H 	H 	0.81639 0.95866 0.90688 0.04100
H 	H 	0.81389 0.88794 0.88778 0.04300
H 	H 	0.43560 0.92059 0.06418 0.03100
H 	H 	0.44312 0.99224 0.07545 0.06000
H 	H 	0.43025 0.97648 0.87050 0.04700
H 	H 	0.63677 0.96596 0.81504 0.08600
H 	H 	0.58705 0.95947 0.89751 0.04800
H 	H 	0.61315 0.99193 0.88337 0.05000
H 	H 	0.69430 0.93372 0.92666 0.07600
C 	C 	0.56218 0.74872 0.94618 -0.01300
C 	C 	0.57811 0.72007 0.96167 -0.05300
C 	C 	0.61864 0.72124 0.97253 0.00200
C 	C 	0.63868 0.74194 0.95646 -0.08600
C 	C 	0.61386 0.75172 0.91948 0.04500
C 	C 	0.62849 0.75806 0.88873 -0.05000
C 	C 	0.53847 0.75641 0.87486 -0.04700
C 	C 	0.57053 0.75109 0.91186 0.00500
C 	C 	0.56767 0.78867 0.98265 0.01900
C 	C 	0.55846 0.78814 0.01731 -0.01400
C 	C 	0.55248 0.82199 0.04682 -0.02300
C 	C 	0.56346 0.85958 0.04769 -0.07500
C 	C 	0.57781 0.86180 0.01589 0.19300
O 	O 	0.58862 0.89837 0.01570 -0.16900
C 	C 	0.55436 0.90651 0.98714 -0.10600
C 	C 	0.57967 0.82627 0.98301 -0.14500
H 	H 	0.56412 0.70637 0.97722 0.03200
H 	H 	0.63484 0.70889 0.99634 0.03600
H 	H 	0.55679 0.88599 0.06905 0.08900
H 	H 	0.56331 0.93573 0.98659 0.05600
H 	H 	0.54217 0.88316 0.95114 0.06700
H 	H 	0.53085 0.90962 0.00072 0.08900
H 	H 	0.58906 0.82846 0.95745 0.08300
C 	C 	0.76499 0.17320 0.14834 0.33500
Ni	Ni	0.74612 0.10998 0.06706 1.23400
Ni	Ni	0.75599 0.09046 0.13917 1.22800
Ni	Ni	0.76561 0.10012 0.24493 1.22800
H 	H 	0.81587 0.07799 0.18956 0.19600
C 	C 	0.01623 0.42446 0.23578 0.32600
H 	H 	0.11140 0.37355 0.19453 0.19600
C 	C 	0.85202 0.14650 0.30620 0.27200
H 	H 	0.74438 0.14920 0.28379 0.24300
C 	C 	0.70959 0.33741 0.07789 0.26900
H 	H 	0.04024 0.44506 0.10033 0.24300
C 	C 	0.09594 0.36547 0.26761 0.30300
H 	H 	0.06696 0.36850 0.18326 0.21000
H 	H 	0.82094 0.12244 0.20082 0.21100
C 	C 	0.82397 0.09348 0.11649 0.30400
O 	O 	0.99114 0.04566 0.09654 -0.21000
O 	O 	0.04231 0.09938 0.15700 -0.29600
O 	O 	0.81043 0.19829 0.28755 -0.22500
O 	O 	0.75670 0.14713 0.22711 -0.29800
H 	H 	0.03360 0.40185 0.07061 0.30400
O 	O 	0.74883 0.16125 0.10404 -0.40500
O 	O 	0.77492 0.14613 0.16432 -0.39500
O 	O 	0.02819 0.10729 0.28009 -0.40600
O 	O 	0.04329 0.41453 0.21980 -0.39400
O 	O 	0.85265 0.16763 0.34666 -0.21700
H 	H 	0.78759 0.15584 0.31350 0.30200
O 	O 	0.82050 0.11923 0.26911 -0.34900
O 	O 	0.68846 0.33678 0.03744 -0.20600
O 	O 	0.73687 0.36892 0.11499 -0.34800
O 	O 	0.73888 0.38561 0.28313 -0.36000
O 	O 	0.11744 0.39178 0.26339 -0.37500
O 	O 	0.80382 0.11721 0.10097 -0.36100
O 	O 	0.79765 0.07198 0.12071 -0.37500
O 	O 	0.79964 0.09903 0.19158 -0.53600
O 	O 	0.09037 0.38979 0.19251 -0.53600
O 	O 	0.76470 0.13355 0.29233 -0.84900
O 	O 	0.05589 0.42473 0.09178 -0.85000
C 	C 	0.77692 0.18812 0.25115 0.24100
C 	C 	0.10737 0.29392 0.18792 -0.01800
C 	C 	0.13602 0.27799 0.17244 -0.04700
C 	C 	0.13487 0.23746 0.16158 0.00800
C 	C 	0.11417 0.21741 0.17765 -0.09300
C 	C 	0.77104 0.24224 0.21462 0.04900
C 	C 	0.76470 0.22761 0.24537 -0.05000
C 	C 	0.76586 0.26050 0.28519 -0.01500
C 	C 	0.76834 0.30257 0.29196 -0.01800
C 	C 	0.76635 0.31763 0.25924 -0.04700
C 	C 	0.10500 0.28557 0.22224 0.00600
C 	C 	0.06743 0.28842 0.15144 0.05300
C 	C 	0.73461 0.29762 0.11678 -0.05700
C 	C 	0.03410 0.30361 0.08727 -0.02100
C 	C 	0.99652 0.29263 0.08641 -0.06800
C 	C 	0.99430 0.27828 0.11821 0.17200
O 	O 	0.95773 0.26747 0.11841 -0.19700
C 	C 	0.94960 0.30174 0.14697 -0.03000
C 	C 	0.02982 0.27643 0.15110 -0.12700
H 	H 	0.14972 0.29198 0.15688 0.04100
H 	H 	0.14723 0.22126 0.13778 0.04700
H 	H 	0.76893 0.25392 0.31419 0.04400
H 	H 	0.77645 0.32557 0.32545 0.05400
H 	H 	0.76359 0.30984 0.12053 0.05000
H 	H 	0.97010 0.29930 0.06506 0.09100
H 	H 	0.92038 0.29278 0.14752 0.05100
H 	H 	0.97295 0.31393 0.18297 0.05700
H 	H 	0.94648 0.32525 0.13338 0.05300
H 	H 	0.02764 0.26703 0.17666 0.08200
C 	C 	0.89551 0.08205 0.19618 -0.01900
C 	C 	0.94720 0.08506 0.16949 0.04400
C 	C 	0.96183 0.09139 0.13874 -0.03800
C 	C 	0.92894 0.42357 0.09891 -0.01900
C 	C 	0.88686 0.42110 0.09215 -0.01500
C 	C 	0.87181 0.08975 0.12486 -0.04800
C 	C 	0.90386 0.08442 0.16186 0.00900
C 	C 	0.90100 0.12200 0.23266 0.05200
C 	C 	0.89179 0.12147 0.26732 -0.05600
C 	C 	0.88581 0.15532 0.29683 -0.01600
C 	C 	0.89679 0.19291 0.29770 -0.07500
C 	C 	0.91115 0.19513 0.26589 0.16500
O 	O 	0.92196 0.23170 0.26570 -0.19600
C 	C 	0.88770 0.23984 0.23714 -0.03000
C 	C 	0.91300 0.15961 0.23301 -0.11800
H 	H 	0.96817 0.04222 0.24635 0.05000
H 	H 	0.93550 0.42051 0.06992 0.05100
H 	H 	0.86386 0.41298 0.05865 0.05700
H 	H 	0.87958 0.42583 0.26356 0.05000
H 	H 	0.89013 0.21933 0.31905 0.08800
H 	H 	0.89666 0.26906 0.23659 0.05100
H 	H 	0.87551 0.21649 0.20115 0.05500
H 	H 	0.86419 0.24296 0.25073 0.05200
H 	H 	0.92240 0.16179 0.20746 0.08300
C 	C 	0.76499 0.17320 0.39834 0.33500
Ni	Ni	0.74612 0.10998 0.31706 1.23400
Ni	Ni	0.75599 0.09046 0.38917 1.22800
Ni	Ni	0.76561 0.10012 0.49493 1.22800
H 	H 	0.81587 0.07798 0.43956 0.19600
C 	C 	0.01623 0.42446 0.48578 0.32600
H 	H 	0.11139 0.37355 0.44452 0.19600
C 	C 	0.85201 0.14650 0.55620 0.27200
H 	H 	0.74438 0.14920 0.53379 0.24300
C 	C 	0.70959 0.33740 0.32789 0.27200
H 	H 	0.04025 0.44506 0.35032 0.24200
C 	C 	0.09594 0.36547 0.51761 0.30300
H 	H 	0.06695 0.36850 0.43326 0.21000
H 	H 	0.82094 0.12243 0.45082 0.21100
C 	C 	0.82397 0.09348 0.36648 0.30400
O 	O 	0.99114 0.04566 0.34654 -0.21400
O 	O 	0.04231 0.09938 0.40700 -0.29600
O 	O 	0.81042 0.19829 0.53755 -0.22500
O 	O 	0.75669 0.14713 0.47711 -0.29800
H 	H 	0.03360 0.40184 0.32061 0.30000
O 	O 	0.74883 0.16125 0.35404 -0.40500
O 	O 	0.77492 0.14613 0.41432 -0.39500
O 	O 	0.02819 0.10729 0.53009 -0.40600
O 	O 	0.04329 0.41453 0.46980 -0.39400
O 	O 	0.85265 0.16763 0.59666 -0.21700
H 	H 	0.78759 0.15584 0.56350 0.30200
O 	O 	0.82050 0.11923 0.51910 -0.34900
O 	O 	0.68846 0.33678 0.28743 -0.21700
O 	O 	0.73687 0.36891 0.36498 -0.34900
O 	O 	0.73888 0.38561 0.53313 -0.36000
O 	O 	0.11744 0.39178 0.51339 -0.37500
O 	O 	0.80382 0.11721 0.35097 -0.36100
O 	O 	0.79766 0.07198 0.37071 -0.37400
O 	O 	0.79964 0.09902 0.44158 -0.53600
O 	O 	0.09037 0.38979 0.44251 -0.53600
O 	O 	0.76470 0.13355 0.54233 -0.84900
O 	O 	0.05589 0.42473 0.34178 -0.84800
C 	C 	0.77692 0.18811 0.50115 0.24100
C 	C 	0.10738 0.29392 0.43792 -0.01800
C 	C 	0.13602 0.27799 0.42244 -0.04800
C 	C 	0.13487 0.23746 0.41158 0.00800
C 	C 	0.11417 0.21741 0.42765 -0.09300
C 	C 	0.77104 0.24224 0.46462 0.04900
C 	C 	0.76470 0.22761 0.49537 -0.05000
C 	C 	0.76586 0.26050 0.53519 -0.01500
C 	C 	0.76834 0.30257 0.54196 -0.01800
C 	C 	0.76635 0.31763 0.50924 -0.04700
C 	C 	0.10500 0.28557 0.47224 0.00600
C 	C 	0.06743 0.28842 0.40144 0.05200
C 	C 	0.73461 0.29762 0.36677 -0.05600
C 	C 	0.03410 0.30361 0.33727 -0.02600
C 	C 	0.99652 0.29263 0.33640 -0.06700
C 	C 	0.99430 0.27828 0.36821 0.17100
O 	O 	0.95773 0.26747 0.36841 -0.19700
C 	C 	0.94960 0.30174 0.39697 -0.02900
C 	C 	0.02982 0.27643 0.40110 -0.12700
H 	H 	0.14972 0.29198 0.40688 0.04000
H 	H 	0.14723 0.22126 0.38779 0.04600
H 	H 	0.76892 0.25392 0.56419 0.04400
H 	H 	0.77645 0.32557 0.57545 0.05400
H 	H 	0.76359 0.30983 0.37053 0.05000
H 	H 	0.97010 0.29930 0.31506 0.08700
H 	H 	0.92038 0.29279 0.39752 0.05100
H 	H 	0.97295 0.31393 0.43297 0.05700
H 	H 	0.94648 0.32525 0.38338 0.05200
H 	H 	0.02764 0.26704 0.42666 0.08200
C 	C 	0.89551 0.08205 0.44618 -0.01900
C 	C 	0.94720 0.08505 0.41949 0.04400
C 	C 	0.96183 0.09139 0.38874 -0.03900
C 	C 	0.92894 0.42356 0.34891 -0.01900
C 	C 	0.88686 0.42109 0.34214 -0.01600
C 	C 	0.87181 0.08975 0.37486 -0.04800
C 	C 	0.90386 0.08442 0.41186 0.00800
C 	C 	0.90100 0.12200 0.48266 0.05300
C 	C 	0.89179 0.12147 0.51732 -0.05600
C 	C 	0.88581 0.15532 0.54682 -0.01600
C 	C 	0.89679 0.19291 0.54769 -0.07500
C 	C 	0.91115 0.19513 0.51589 0.16500
O 	O 	0.92196 0.23170 0.51570 -0.19600
C 	C 	0.88770 0.23984 0.48714 -0.03000
C 	C 	0.91300 0.15961 0.48301 -0.11800
H 	H 	0.96817 0.04222 0.49635 0.05000
H 	H 	0.93550 0.42050 0.31991 0.04600
H 	H 	0.86386 0.41298 0.30865 0.05400
H 	H 	0.87958 0.42583 0.51356 0.05000
H 	H 	0.89013 0.21933 0.56905 0.08800
H 	H 	0.89666 0.26906 0.48659 0.05100
H 	H 	0.87551 0.21649 0.45114 0.05500
H 	H 	0.86419 0.24296 0.50073 0.05200
H 	H 	0.92240 0.16179 0.45746 0.08300
C 	C 	0.76499 0.17320 0.64834 0.33500
Ni	Ni	0.74612 0.10998 0.56706 1.23400
Ni	Ni	0.75599 0.09046 0.63917 1.22800
Ni	Ni	0.76561 0.10012 0.74493 1.22800
H 	H 	0.81587 0.07798 0.68956 0.19600
C 	C 	0.01623 0.42446 0.73578 0.32600
H 	H 	0.11140 0.37355 0.69452 0.19600
C 	C 	0.85202 0.14650 0.80620 0.27200
H 	H 	0.74438 0.14920 0.78379 0.24400
C 	C 	0.70959 0.33740 0.57789 0.27200
H 	H 	0.04025 0.44506 0.60032 0.24200
C 	C 	0.09594 0.36547 0.76761 0.30300
H 	H 	0.06696 0.36850 0.68326 0.21000
H 	H 	0.82094 0.12243 0.70082 0.21100
C 	C 	0.82397 0.09348 0.61648 0.30400
O 	O 	0.99114 0.04566 0.59654 -0.21400
O 	O 	0.04231 0.09938 0.65700 -0.29600
O 	O 	0.81043 0.19829 0.78755 -0.22500
O 	O 	0.75670 0.14713 0.72711 -0.29800
H 	H 	0.03360 0.40185 0.57061 0.30100
O 	O 	0.74883 0.16125 0.60404 -0.40500
O 	O 	0.77492 0.14613 0.66432 -0.39500
O 	O 	0.02819 0.10729 0.78009 -0.40600
O 	O 	0.04329 0.41453 0.71980 -0.39400
O 	O 	0.85265 0.16763 0.84666 -0.21800
H 	H 	0.78759 0.15584 0.81350 0.30200
O 	O 	0.82050 0.11923 0.76910 -0.34900
O 	O 	0.68846 0.33678 0.53743 -0.21700
O 	O 	0.73687 0.36891 0.61498 -0.34900
O 	O 	0.73888 0.38561 0.78313 -0.36000
O 	O 	0.11744 0.39178 0.76339 -0.37500
O 	O 	0.80382 0.11721 0.60097 -0.36100
O 	O 	0.79766 0.07198 0.62071 -0.37400
O 	O 	0.79964 0.09903 0.69158 -0.53600
O 	O 	0.09037 0.38979 0.69251 -0.53600
O 	O 	0.76470 0.13355 0.79233 -0.84900
O 	O 	0.05589 0.42473 0.59178 -0.84800
C 	C 	0.77693 0.18811 0.75115 0.24100
C 	C 	0.10738 0.29392 0.68792 -0.01800
C 	C 	0.13602 0.27799 0.67244 -0.04800
C 	C 	0.13487 0.23746 0.66158 0.00800
C 	C 	0.11417 0.21741 0.67765 -0.09300
C 	C 	0.77104 0.24224 0.71462 0.04900
C 	C 	0.76470 0.22761 0.74537 -0.05000
C 	C 	0.76586 0.26050 0.78519 -0.01500
C 	C 	0.76834 0.30257 0.79196 -0.01800
C 	C 	0.76635 0.31763 0.75924 -0.04700
C 	C 	0.10500 0.28557 0.72224 0.00600
C 	C 	0.06743 0.28842 0.65144 0.05200
C 	C 	0.73461 0.29762 0.61677 -0.05600
C 	C 	0.03410 0.30361 0.58727 -0.02600
C 	C 	0.99652 0.29263 0.58641 -0.06700
C 	C 	0.99430 0.27828 0.61821 0.17100
O 	O 	0.95773 0.26747 0.61841 -0.19700
C 	C 	0.94960 0.30174 0.64697 -0.02900
C 	C 	0.02982 0.27643 0.65110 -0.12700
H 	H 	0.14972 0.29198 0.65688 0.04000
H 	H 	0.14723 0.22126 0.63778 0.04600
H 	H 	0.76893 0.25392 0.81419 0.04400
H 	H 	0.77645 0.32557 0.82545 0.05400
H 	H 	0.76359 0.30983 0.62053 0.05000
H 	H 	0.97010 0.29930 0.56506 0.08700
H 	H 	0.92038 0.29278 0.64752 0.05100
H 	H 	0.97295 0.31393 0.68297 0.05700
H 	H 	0.94648 0.32525 0.63338 0.05200
H 	H 	0.02764 0.26703 0.67666 0.08200
C 	C 	0.89551 0.08205 0.69618 -0.01900
C 	C 	0.94720 0.08505 0.66949 0.04400
C 	C 	0.96183 0.09139 0.63874 -0.03900
C 	C 	0.92894 0.42357 0.59891 -0.01900
C 	C 	0.88686 0.42109 0.59215 -0.01600
C 	C 	0.87181 0.08975 0.62486 -0.04800
C 	C 	0.90386 0.08442 0.66186 0.00800
C 	C 	0.90100 0.12200 0.73266 0.05200
C 	C 	0.89179 0.12147 0.76732 -0.05600
C 	C 	0.88581 0.15532 0.79682 -0.01600
C 	C 	0.89680 0.19291 0.79770 -0.07500
C 	C 	0.91115 0.19513 0.76589 0.16500
O 	O 	0.92196 0.23170 0.76570 -0.19600
C 	C 	0.88770 0.23984 0.73714 -0.03000
C 	C 	0.91300 0.15961 0.73301 -0.11800
H 	H 	0.96817 0.04222 0.74635 0.05000
H 	H 	0.93551 0.42050 0.56991 0.04600
H 	H 	0.86387 0.41298 0.55865 0.05400
H 	H 	0.87958 0.42583 0.76356 0.05000
H 	H 	0.89013 0.21932 0.81905 0.08700
H 	H 	0.89665 0.26906 0.73659 0.05100
H 	H 	0.87551 0.21649 0.70114 0.05500
H 	H 	0.86419 0.24296 0.75073 0.05200
H 	H 	0.92240 0.16179 0.70746 0.08300
C 	C 	0.76499 0.17320 0.89834 0.34000
Ni	Ni	0.74612 0.10998 0.81706 1.23400
Ni	Ni	0.75599 0.09046 0.88917 1.22800
Ni	Ni	0.76561 0.10012 0.99493 1.21200
H 	H 	0.81587 0.07797 0.93955 0.19200
C 	C 	0.01623 0.42446 0.98578 0.28800
H 	H 	0.11138 0.37355 0.94452 0.18900
C 	C 	0.85201 0.14650 0.05620 0.27300
H 	H 	0.74437 0.14920 0.03379 0.25000
C 	C 	0.70959 0.33740 0.82788 0.27300
H 	H 	0.04025 0.44506 0.85032 0.24200
C 	C 	0.09594 0.36547 0.01761 0.29800
H 	H 	0.06695 0.36850 0.93325 0.20600
H 	H 	0.82094 0.12242 0.95081 0.20400
C 	C 	0.82397 0.09348 0.86648 0.30300
O 	O 	0.99114 0.04566 0.84653 -0.21400
O 	O 	0.04231 0.09937 0.90699 -0.29600
O 	O 	0.81042 0.19829 0.03755 -0.23400
O 	O 	0.75669 0.14713 0.97710 -0.33200
H 	H 	0.03360 0.40184 0.82060 0.30000
O 	O 	0.74883 0.16125 0.85404 -0.40700
O 	O 	0.77492 0.14613 0.91432 -0.40000
O 	O 	0.02819 0.10729 0.03009 -0.37500
O 	O 	0.04328 0.41453 0.96980 -0.39400
O 	O 	0.85265 0.16763 0.09666 -0.21700
H 	H 	0.78758 0.15584 0.06350 0.30100
O 	O 	0.82050 0.11923 0.01910 -0.33300
O 	O 	0.68846 0.33677 0.78743 -0.21800
O 	O 	0.73687 0.36891 0.86498 -0.34900
O 	O 	0.73888 0.38561 0.03313 -0.35100
O 	O 	0.11744 0.39178 0.01338 -0.35800
O 	O 	0.80382 0.11721 0.85097 -0.36100
O 	O 	0.79766 0.07198 0.87070 -0.37400
O 	O 	0.79965 0.09902 0.94157 -0.53800
O 	O 	0.09036 0.38980 0.94250 -0.53800
O 	O 	0.76470 0.13355 0.04233 -0.83900
O 	O 	0.05589 0.42473 0.84178 -0.84800
C 	C 	0.77692 0.18812 0.00115 0.31000
C 	C 	0.10737 0.29391 0.93792 -0.00200
C 	C 	0.13602 0.27799 0.92243 -0.06200
C 	C 	0.13487 0.23746 0.91158 0.01700
C 	C 	0.11417 0.21741 0.92765 -0.11200
C 	C 	0.77104 0.24223 0.96462 0.08000
C 	C 	0.76469 0.22761 0.99536 -0.13100
C 	C 	0.76585 0.26050 0.03519 0.04800
C 	C 	0.76833 0.30257 0.04195 -0.04600
C 	C 	0.76634 0.31763 0.00924 0.00400
C 	C 	0.10500 0.28557 0.97224 -0.04800
C 	C 	0.06743 0.28842 0.90144 0.04300
C 	C 	0.73461 0.29762 0.86677 -0.05200
C 	C 	0.03410 0.30360 0.83726 -0.02800
C 	C 	0.99652 0.29263 0.83640 -0.06500
C 	C 	0.99430 0.27828 0.86821 0.16900
O 	O 	0.95773 0.26747 0.86841 -0.19800
C 	C 	0.94960 0.30174 0.89697 -0.02800
C 	C 	0.02982 0.27643 0.90109 -0.12400
H 	H 	0.14972 0.29198 0.90688 0.04200
H 	H 	0.14723 0.22126 0.88779 0.04300
H 	H 	0.76892 0.25392 0.06418 0.03100
H 	H 	0.77644 0.32557 0.07545 0.06200
H 	H 	0.76359 0.30983 0.87052 0.04800
H 	H 	0.97010 0.29930 0.81505 0.08600
H 	H 	0.92038 0.29279 0.89752 0.04900
H 	H 	0.97295 0.31393 0.93296 0.05200
H 	H 	0.94648 0.32525 0.88337 0.05200
H 	H 	0.02764 0.26704 0.92665 0.07600
C 	C 	0.89551 0.08205 0.94618 -0.01500
C 	C 	0.94720 0.08505 0.91949 0.04000
C 	C 	0.96183 0.09138 0.88874 -0.03800
C 	C 	0.92894 0.42356 0.84891 -0.02000
C 	C 	0.88686 0.42109 0.84214 -0.01600
C 	C 	0.87181 0.08974 0.87486 -0.04800
C 	C 	0.90386 0.08442 0.91186 0.00800
C 	C 	0.90100 0.12200 0.98266 0.02000
C 	C 	0.89179 0.12147 0.01731 -0.01500
C 	C 	0.88580 0.15532 0.04682 -0.02200
C 	C 	0.89679 0.19291 0.04769 -0.07500
C 	C 	0.91115 0.19513 0.01589 0.19300
O 	O 	0.92197 0.23170 0.01570 -0.16800
C 	C 	0.88770 0.23984 0.98714 -0.10800
C 	C 	0.91300 0.15960 0.98301 -0.14500
H 	H 	0.96817 0.04222 0.99635 0.04000
H 	H 	0.93550 0.42049 0.81991 0.04600
H 	H 	0.86386 0.41297 0.80865 0.05400
H 	H 	0.87957 0.42583 0.01356 0.05000
H 	H 	0.89012 0.21933 0.06904 0.08900
H 	H 	0.89666 0.26906 0.98659 0.05700
H 	H 	0.87552 0.21649 0.95114 0.06700
H 	H 	0.86419 0.24296 0.00072 0.09000
H 	H 	0.92240 0.16179 0.95745 0.08400
C 	C 	0.76498 0.50654 0.14833 0.33500
Ni	Ni	0.74612 0.44332 0.06705 1.23400
Ni	Ni	0.75598 0.42381 0.13917 1.22800
Ni	Ni	0.76562 0.43345 0.24493 1.22800
H 	H 	0.81587 0.41135 0.18957 0.19600
C 	C 	0.01623 0.75779 0.23578 0.32600
H 	H 	0.11140 0.70689 0.19452 0.19600
C 	C 	0.85202 0.47984 0.30621 0.27200
H 	H 	0.74438 0.48253 0.28378 0.24300
C 	C 	0.70959 0.67074 0.07789 0.26900
H 	H 	0.04025 0.77839 0.10032 0.24300
C 	C 	0.09594 0.69880 0.26761 0.30300
H 	H 	0.06696 0.70183 0.18326 0.21000
H 	H 	0.82093 0.45580 0.20083 0.21100
C 	C 	0.82396 0.42682 0.11649 0.30400
O 	O 	0.99113 0.37901 0.09654 -0.21100
O 	O 	0.04230 0.43272 0.15699 -0.29600
O 	O 	0.81043 0.53163 0.28755 -0.22500
O 	O 	0.75670 0.48046 0.22711 -0.29800
H 	H 	0.03360 0.73518 0.07061 0.30400
O 	O 	0.74882 0.49458 0.10402 -0.40500
O 	O 	0.77491 0.47948 0.16431 -0.39500
O 	O 	0.02819 0.44062 0.28008 -0.40600
O 	O 	0.04329 0.74786 0.21980 -0.39400
O 	O 	0.85265 0.50097 0.34667 -0.21700
H 	H 	0.78759 0.48917 0.31350 0.30200
O 	O 	0.82051 0.45256 0.26911 -0.34900
O 	O 	0.68846 0.67011 0.03743 -0.20600
O 	O 	0.73687 0.70225 0.11498 -0.34800
O 	O 	0.73888 0.71895 0.28313 -0.36000
O 	O 	0.11744 0.72512 0.26339 -0.37500
O 	O 	0.80382 0.45055 0.10097 -0.36100
O 	O 	0.79765 0.40532 0.12071 -0.37500
O 	O 	0.79963 0.43238 0.19159 -0.53600
O 	O 	0.09037 0.72313 0.19251 -0.53600
C 	C 	0.00132 0.41250 0.13295 0.22500
O 	O 	0.76470 0.46688 0.29232 -0.84900
O 	O 	0.05589 0.75806 0.09178 -0.85000
C 	C 	0.77693 0.52145 0.25115 0.24100
C 	C 	0.10737 0.62725 0.18792 -0.01800
C 	C 	0.13602 0.61133 0.17243 -0.04700
C 	C 	0.13487 0.57080 0.16157 0.00800
C 	C 	0.11417 0.55075 0.17764 -0.09300
C 	C 	0.77104 0.57557 0.21462 0.04900
C 	C 	0.76470 0.56094 0.24536 -0.05000
C 	C 	0.76587 0.59383 0.28519 -0.01500
C 	C 	0.76834 0.63591 0.29196 -0.01800
C 	C 	0.76635 0.65096 0.25924 -0.04700
C 	C 	0.10500 0.61891 0.22224 0.00600
C 	C 	0.06743 0.62176 0.15144 0.05300
C 	C 	0.73461 0.63096 0.11677 -0.05700
C 	C 	0.03410 0.63694 0.08727 -0.02000
C 	C 	0.99652 0.62597 0.08640 -0.06800
C 	C 	0.99430 0.61162 0.11821 0.17200
O 	O 	0.95773 0.60081 0.11841 -0.19700
C 	C 	0.94960 0.63508 0.14697 -0.03000
C 	C 	0.02982 0.60977 0.15110 -0.12600
H 	H 	0.14972 0.62532 0.15688 0.04100
H 	H 	0.14722 0.55460 0.13777 0.04700
H 	H 	0.76893 0.58726 0.31419 0.04400
H 	H 	0.77645 0.65890 0.32545 0.05400
H 	H 	0.76359 0.64317 0.12052 0.05000
H 	H 	0.97010 0.63264 0.06505 0.09100
H 	H 	0.92038 0.62612 0.14752 0.05100
H 	H 	0.97295 0.64726 0.18296 0.05700
H 	H 	0.94648 0.65859 0.13338 0.05300
H 	H 	0.02764 0.60037 0.17666 0.08200
C 	C 	0.89552 0.41539 0.19618 -0.01900
C 	C 	0.91144 0.38674 0.21167 -0.04500
C 	C 	0.95198 0.38790 0.22253 0.00500
C 	C 	0.97202 0.40861 0.20646 -0.08200
C 	C 	0.94720 0.41839 0.16949 0.04400
C 	C 	0.96182 0.42473 0.13874 -0.03800
C 	C 	0.92894 0.75690 0.09891 -0.01800
C 	C 	0.88686 0.75443 0.09215 -0.01500
C 	C 	0.87180 0.42308 0.12486 -0.04800
C 	C 	0.90386 0.41776 0.16186 0.00900
C 	C 	0.90100 0.45533 0.23266 0.05200
C 	C 	0.89180 0.45481 0.26732 -0.05600
C 	C 	0.88581 0.48866 0.29683 -0.01600
C 	C 	0.89680 0.52624 0.29770 -0.07500
C 	C 	0.91114 0.52847 0.26589 0.16500
O 	O 	0.92195 0.56504 0.26570 -0.19600
C 	C 	0.88769 0.57317 0.23714 -0.03000
C 	C 	0.91300 0.49294 0.23301 -0.11800
H 	H 	0.89745 0.37304 0.22723 0.04000
H 	H 	0.96817 0.37555 0.24634 0.05000
H 	H 	0.93550 0.75384 0.06991 0.05100
H 	H 	0.86386 0.74632 0.05865 0.05600
H 	H 	0.87958 0.75916 0.26356 0.05000
H 	H 	0.89013 0.55266 0.31905 0.08800
H 	H 	0.89664 0.60239 0.23659 0.05100
H 	H 	0.87550 0.54982 0.20115 0.05500
H 	H 	0.86418 0.57629 0.25073 0.05200
H 	H 	0.92239 0.49513 0.20745 0.08300
C 	C 	0.76498 0.50654 0.39833 0.33500
Ni	Ni	0.74612 0.44332 0.31705 1.23400
Ni	Ni	0.75599 0.42380 0.38917 1.22800
Ni	Ni	0.76562 0.43345 0.49493 1.22800
H 	H 	0.81587 0.41134 0.43957 0.19600
C 	C 	0.01623 0.75779 0.48578 0.32600
H 	H 	0.11139 0.70689 0.44452 0.19600
C 	C 	0.85202 0.47984 0.55621 0.27200
H 	H 	0.74437 0.48253 0.53378 0.24300
C 	C 	0.70959 0.67074 0.32788 0.27200
H 	H 	0.04025 0.77839 0.35032 0.24200
C 	C 	0.09594 0.69880 0.51761 0.30300
H 	H 	0.06695 0.70183 0.43326 0.21000
H 	H 	0.82093 0.45579 0.45083 0.21100
C 	C 	0.82396 0.42682 0.36649 0.30400
O 	O 	0.99114 0.37900 0.34654 -0.21500
O 	O 	0.04231 0.43272 0.40699 -0.29600
O 	O 	0.81043 0.53163 0.53755 -0.22500
O 	O 	0.75670 0.48046 0.47710 -0.29800
H 	H 	0.03360 0.73518 0.32060 0.30000
O 	O 	0.74882 0.49458 0.35403 -0.40600
O 	O 	0.77491 0.47947 0.41431 -0.39500
O 	O 	0.02819 0.44062 0.53008 -0.40600
O 	O 	0.04329 0.74786 0.46980 -0.39400
O 	O 	0.85265 0.50097 0.59666 -0.21700
H 	H 	0.78758 0.48917 0.56350 0.30200
O 	O 	0.82051 0.45256 0.51911 -0.34900
O 	O 	0.68846 0.67011 0.28743 -0.21800
O 	O 	0.73687 0.70225 0.36498 -0.34900
O 	O 	0.73888 0.71895 0.53313 -0.36000
O 	O 	0.11744 0.72511 0.51338 -0.37500
O 	O 	0.80382 0.45055 0.35097 -0.36100
O 	O 	0.79765 0.40532 0.37071 -0.37500
O 	O 	0.79964 0.43238 0.44159 -0.53600
O 	O 	0.09037 0.72313 0.44250 -0.53600
C 	C 	0.00132 0.41250 0.38295 0.22500
O 	O 	0.76470 0.46688 0.54232 -0.84900
O 	O 	0.05589 0.75806 0.34178 -0.84800
C 	C 	0.77693 0.52145 0.50114 0.24100
C 	C 	0.10737 0.62725 0.43792 -0.01800
C 	C 	0.13602 0.61133 0.42243 -0.04800
C 	C 	0.13487 0.57080 0.41157 0.00800
C 	C 	0.11417 0.55075 0.42764 -0.09300
C 	C 	0.77104 0.57557 0.46462 0.04900
C 	C 	0.76470 0.56094 0.49536 -0.05000
C 	C 	0.76586 0.59383 0.53519 -0.01500
C 	C 	0.76834 0.63591 0.54196 -0.01800
C 	C 	0.76635 0.65096 0.50924 -0.04700
C 	C 	0.10500 0.61891 0.47224 0.00600
C 	C 	0.06743 0.62176 0.40144 0.05200
C 	C 	0.73461 0.63095 0.36677 -0.05600
C 	C 	0.03410 0.63694 0.33726 -0.02600
C 	C 	0.99652 0.62596 0.33640 -0.06700
C 	C 	0.99430 0.61162 0.36821 0.17100
O 	O 	0.95773 0.60081 0.36841 -0.19700
C 	C 	0.94960 0.63508 0.39697 -0.02900
C 	C 	0.02982 0.60977 0.40109 -0.12700
H 	H 	0.14972 0.62532 0.40688 0.04000
H 	H 	0.14722 0.55460 0.38777 0.04600
H 	H 	0.76893 0.58726 0.56418 0.04400
H 	H 	0.77645 0.65890 0.57545 0.05400
H 	H 	0.76359 0.64316 0.37052 0.05000
H 	H 	0.97010 0.63263 0.31505 0.08700
H 	H 	0.92038 0.62612 0.39752 0.05100
H 	H 	0.97295 0.64727 0.43296 0.05700
H 	H 	0.94648 0.65859 0.38337 0.05200
H 	H 	0.02764 0.60038 0.42666 0.08200
C 	C 	0.89552 0.41539 0.44618 -0.01900
C 	C 	0.91144 0.38674 0.46167 -0.04600
C 	C 	0.95198 0.38790 0.47253 0.00500
C 	C 	0.97202 0.40861 0.45647 -0.08200
C 	C 	0.94720 0.41839 0.41949 0.04400
C 	C 	0.96182 0.42473 0.38874 -0.03900
C 	C 	0.92894 0.75690 0.34891 -0.01900
C 	C 	0.88686 0.75442 0.34214 -0.01600
C 	C 	0.87180 0.42308 0.37486 -0.04800
C 	C 	0.90386 0.41776 0.41186 0.00800
C 	C 	0.90100 0.45533 0.48266 0.05300
C 	C 	0.89180 0.45481 0.51732 -0.05600
C 	C 	0.88581 0.48866 0.54683 -0.01600
C 	C 	0.89679 0.52624 0.54770 -0.07500
C 	C 	0.91115 0.52847 0.51589 0.16500
O 	O 	0.92196 0.56504 0.51570 -0.19600
C 	C 	0.88769 0.57317 0.48714 -0.03000
C 	C 	0.91300 0.49294 0.48301 -0.11800
H 	H 	0.89745 0.37304 0.47723 0.04000
H 	H 	0.96817 0.37555 0.49634 0.05000
H 	H 	0.93550 0.75383 0.31991 0.04600
H 	H 	0.86386 0.74631 0.30865 0.05400
H 	H 	0.87958 0.75916 0.51356 0.05000
H 	H 	0.89013 0.55266 0.56905 0.08800
H 	H 	0.89665 0.60239 0.48659 0.05100
H 	H 	0.87550 0.54982 0.45114 0.05500
H 	H 	0.86418 0.57629 0.50073 0.05200
H 	H 	0.92239 0.49513 0.45745 0.08300
C 	C 	0.76498 0.50654 0.64833 0.33500
Ni	Ni	0.74612 0.44332 0.56705 1.23400
Ni	Ni	0.75599 0.42381 0.63917 1.22800
Ni	Ni	0.76562 0.43345 0.74493 1.22800
H 	H 	0.81587 0.41135 0.68957 0.19600
C 	C 	0.01623 0.75779 0.73578 0.32600
H 	H 	0.11140 0.70689 0.69452 0.19600
C 	C 	0.85202 0.47984 0.80621 0.27200
H 	H 	0.74438 0.48253 0.78378 0.24400
C 	C 	0.70959 0.67074 0.57789 0.27200
H 	H 	0.04025 0.77839 0.60032 0.24200
C 	C 	0.09594 0.69880 0.76761 0.30300
H 	H 	0.06696 0.70183 0.68326 0.21000
H 	H 	0.82093 0.45579 0.70083 0.21100
C 	C 	0.82396 0.42682 0.61649 0.30400
O 	O 	0.99114 0.37900 0.59654 -0.21500
O 	O 	0.04231 0.43272 0.65699 -0.29600
O 	O 	0.81043 0.53163 0.78755 -0.22500
O 	O 	0.75670 0.48046 0.72710 -0.29800
H 	H 	0.03360 0.73518 0.57060 0.30100
O 	O 	0.74882 0.49458 0.60403 -0.40600
O 	O 	0.77491 0.47947 0.66431 -0.39500
O 	O 	0.02819 0.44062 0.78008 -0.40600
O 	O 	0.04329 0.74786 0.71980 -0.39400
O 	O 	0.85265 0.50097 0.84667 -0.21800
H 	H 	0.78759 0.48917 0.81350 0.30200
O 	O 	0.82051 0.45256 0.76911 -0.34900
O 	O 	0.68846 0.67011 0.53743 -0.21700
O 	O 	0.73687 0.70225 0.61498 -0.34900
O 	O 	0.73888 0.71895 0.78313 -0.36000
O 	O 	0.11744 0.72511 0.76339 -0.37500
O 	O 	0.80382 0.45055 0.60097 -0.36100
O 	O 	0.79765 0.40532 0.62071 -0.37500
O 	O 	0.79964 0.43238 0.69159 -0.53600
O 	O 	0.09037 0.72313 0.69251 -0.53600
C 	C 	0.00132 0.41250 0.63295 0.22500
O 	O 	0.76470 0.46688 0.79232 -0.84900
O 	O 	0.05589 0.75806 0.59178 -0.84800
C 	C 	0.77693 0.52145 0.75115 0.24100
C 	C 	0.10737 0.62725 0.68792 -0.01800
C 	C 	0.13602 0.61133 0.67243 -0.04800
C 	C 	0.13487 0.57080 0.66157 0.00800
C 	C 	0.11417 0.55075 0.67764 -0.09300
C 	C 	0.77104 0.57557 0.71462 0.04900
C 	C 	0.76470 0.56094 0.74536 -0.05000
C 	C 	0.76587 0.59383 0.78519 -0.01500
C 	C 	0.76834 0.63591 0.79196 -0.01800
C 	C 	0.76635 0.65096 0.75924 -0.04700
C 	C 	0.10500 0.61891 0.72224 0.00600
C 	C 	0.06743 0.62176 0.65144 0.05200
C 	C 	0.73461 0.63095 0.61677 -0.05600
C 	C 	0.03410 0.63694 0.58726 -0.02600
C 	C 	0.99652 0.62596 0.58640 -0.06700
C 	C 	0.99430 0.61162 0.61821 0.17100
O 	O 	0.95773 0.60081 0.61841 -0.19700
C 	C 	0.94960 0.63508 0.64697 -0.02900
C 	C 	0.02982 0.60977 0.65109 -0.12700
H 	H 	0.14972 0.62532 0.65688 0.04000
H 	H 	0.14722 0.55460 0.63777 0.04600
H 	H 	0.76894 0.58726 0.81419 0.04400
H 	H 	0.77646 0.65890 0.82545 0.05400
H 	H 	0.76359 0.64316 0.62052 0.05000
H 	H 	0.97010 0.63264 0.56505 0.08700
H 	H 	0.92038 0.62612 0.64752 0.05100
H 	H 	0.97295 0.64727 0.68296 0.05700
H 	H 	0.94648 0.65859 0.63338 0.05200
H 	H 	0.02764 0.60037 0.67666 0.08200
C 	C 	0.89552 0.41539 0.69618 -0.01900
C 	C 	0.91144 0.38674 0.71167 -0.04600
C 	C 	0.95198 0.38790 0.72253 0.00500
C 	C 	0.97202 0.40861 0.70647 -0.08200
C 	C 	0.94720 0.41839 0.66949 0.04400
C 	C 	0.96182 0.42473 0.63874 -0.03900
C 	C 	0.92894 0.75690 0.59891 -0.01900
C 	C 	0.88686 0.75442 0.59214 -0.01600
C 	C 	0.87181 0.42308 0.62486 -0.04800
C 	C 	0.90386 0.41776 0.66186 0.00800
C 	C 	0.90100 0.45533 0.73266 0.05200
C 	C 	0.89180 0.45481 0.76732 -0.05600
C 	C 	0.88581 0.48866 0.79683 -0.01600
C 	C 	0.89680 0.52624 0.79770 -0.07500
C 	C 	0.91114 0.52847 0.76589 0.16500
O 	O 	0.92195 0.56504 0.76570 -0.19600
C 	C 	0.88769 0.57317 0.73714 -0.03000
C 	C 	0.91300 0.49294 0.73301 -0.11800
H 	H 	0.89745 0.37304 0.72723 0.04000
H 	H 	0.96817 0.37555 0.74634 0.05000
H 	H 	0.93551 0.75383 0.56991 0.04600
H 	H 	0.86387 0.74631 0.55865 0.05400
H 	H 	0.87958 0.75916 0.76356 0.05000
H 	H 	0.89013 0.55266 0.81905 0.08700
H 	H 	0.89664 0.60239 0.73659 0.05100
H 	H 	0.87550 0.54982 0.70114 0.05500
H 	H 	0.86418 0.57629 0.75073 0.05200
H 	H 	0.92239 0.49513 0.70745 0.08300
C 	C 	0.76498 0.50653 0.89833 0.34000
Ni	Ni	0.74612 0.44332 0.81705 1.23400
Ni	Ni	0.75599 0.42380 0.88917 1.22800
Ni	Ni	0.76562 0.43345 0.99493 1.21200
H 	H 	0.81587 0.41134 0.93956 0.19200
C 	C 	0.01623 0.75779 0.98578 0.28800
H 	H 	0.11138 0.70688 0.94451 0.18900
C 	C 	0.85202 0.47984 0.05620 0.27300
H 	H 	0.74437 0.48253 0.03378 0.25100
C 	C 	0.70959 0.67073 0.82788 0.27300
H 	H 	0.04025 0.77839 0.85032 0.24200
C 	C 	0.09594 0.69880 0.01761 0.29800
H 	H 	0.06695 0.70184 0.93325 0.20700
H 	H 	0.82093 0.45578 0.95082 0.20400
C 	C 	0.82396 0.42682 0.86648 0.30300
O 	O 	0.99114 0.37900 0.84653 -0.21500
O 	O 	0.04231 0.43272 0.90699 -0.29600
O 	O 	0.81042 0.53163 0.03755 -0.23400
O 	O 	0.75670 0.48046 0.97710 -0.33200
H 	H 	0.03360 0.73518 0.82060 0.30000
O 	O 	0.74882 0.49458 0.85403 -0.40700
O 	O 	0.77491 0.47947 0.91431 -0.40000
O 	O 	0.02818 0.44062 0.03008 -0.37500
O 	O 	0.04328 0.74786 0.96980 -0.39400
O 	O 	0.85265 0.50097 0.09666 -0.21700
H 	H 	0.78758 0.48917 0.06349 0.30100
O 	O 	0.82050 0.45256 0.01911 -0.33300
O 	O 	0.68846 0.67011 0.78743 -0.21800
O 	O 	0.73687 0.70224 0.86498 -0.34900
O 	O 	0.73888 0.71895 0.03313 -0.35100
O 	O 	0.11744 0.72512 0.01338 -0.35800
O 	O 	0.80382 0.45055 0.85097 -0.36100
O 	O 	0.79765 0.40532 0.87071 -0.37500
O 	O 	0.79964 0.43237 0.94158 -0.53800
O 	O 	0.09036 0.72313 0.94250 -0.53800
C 	C 	0.00132 0.41249 0.88295 0.22400
O 	O 	0.76470 0.46688 0.04232 -0.83900
O 	O 	0.05589 0.75806 0.84178 -0.84800
C 	C 	0.77692 0.52145 0.00114 0.31000
C 	C 	0.10737 0.62725 0.93792 -0.00200
C 	C 	0.13602 0.61133 0.92243 -0.06200
C 	C 	0.13487 0.57079 0.91158 0.01700
C 	C 	0.11417 0.55075 0.92764 -0.11200
C 	C 	0.77104 0.57557 0.96461 0.07900
C 	C 	0.76470 0.56094 0.99536 -0.13100
C 	C 	0.76586 0.59383 0.03519 0.04800
C 	C 	0.76833 0.63591 0.04195 -0.04600
C 	C 	0.76634 0.65096 0.00924 0.00400
C 	C 	0.10500 0.61891 0.97224 -0.04800
C 	C 	0.06743 0.62176 0.90144 0.04300
C 	C 	0.73461 0.63095 0.86677 -0.05200
C 	C 	0.03410 0.63694 0.83726 -0.02800
C 	C 	0.99652 0.62596 0.83640 -0.06500
C 	C 	0.99430 0.61162 0.86821 0.16900
O 	O 	0.95773 0.60081 0.86840 -0.19800
C 	C 	0.94960 0.63508 0.89696 -0.02800
C 	C 	0.02982 0.60977 0.90109 -0.12400
H 	H 	0.14972 0.62532 0.90688 0.04200
H 	H 	0.14722 0.55460 0.88778 0.04300
H 	H 	0.76892 0.58726 0.06418 0.03100
H 	H 	0.77645 0.65890 0.07545 0.06200
H 	H 	0.76359 0.64316 0.87052 0.04800
H 	H 	0.97010 0.63263 0.81505 0.08600
H 	H 	0.92038 0.62613 0.89751 0.04900
H 	H 	0.97295 0.64727 0.93296 0.05200
H 	H 	0.94648 0.65859 0.88337 0.05200
H 	H 	0.02764 0.60038 0.92665 0.07600
C 	C 	0.89551 0.41538 0.94618 -0.01500
C 	C 	0.91144 0.38674 0.96167 -0.05000
C 	C 	0.95197 0.38790 0.97254 -0.00200
C 	C 	0.97202 0.40860 0.95647 -0.07500
C 	C 	0.94720 0.41839 0.91948 0.04000
C 	C 	0.96182 0.42472 0.88873 -0.03900
C 	C 	0.92894 0.75689 0.84891 -0.01900
C 	C 	0.88686 0.75442 0.84214 -0.01600
C 	C 	0.87180 0.42308 0.87486 -0.04800
C 	C 	0.90386 0.41776 0.91186 0.00800
C 	C 	0.90100 0.45533 0.98266 0.02000
C 	C 	0.89179 0.45481 0.01732 -0.01400
C 	C 	0.88581 0.48866 0.04682 -0.02300
C 	C 	0.89679 0.52624 0.04769 -0.07500
C 	C 	0.91115 0.52847 0.01589 0.19300
O 	O 	0.92196 0.56504 0.01570 -0.16800
C 	C 	0.88769 0.57317 0.98714 -0.10700
C 	C 	0.91300 0.49294 0.98301 -0.14500
H 	H 	0.89745 0.37304 0.97722 0.03100
H 	H 	0.96817 0.37555 0.99634 0.03900
H 	H 	0.93550 0.75383 0.81991 0.04600
H 	H 	0.86386 0.74631 0.80865 0.05400
H 	H 	0.87958 0.75916 0.01355 0.05000
H 	H 	0.89012 0.55266 0.06905 0.08900
H 	H 	0.89665 0.60239 0.98659 0.05700
H 	H 	0.87551 0.54982 0.95114 0.06700
H 	H 	0.86418 0.57629 0.00073 0.09000
H 	H 	0.92240 0.49512 0.95745 0.08400
C 	C 	0.76498 0.83987 0.14833 0.33500
Ni	Ni	0.74612 0.77665 0.06705 1.23400
Ni	Ni	0.75598 0.75714 0.13917 1.22800
Ni	Ni	0.76562 0.76678 0.24493 1.22800
H 	H 	0.81587 0.74469 0.18957 0.19600
C 	C 	0.85202 0.81317 0.30621 0.27200
H 	H 	0.74438 0.81586 0.28378 0.24300
C 	C 	0.70959 0.00406 0.07788 0.27400
C 	C 	0.09594 0.03214 0.26761 0.30700
H 	H 	0.06694 0.03517 0.18325 0.21100
H 	H 	0.82093 0.78913 0.20083 0.21100
C 	C 	0.82396 0.76015 0.11649 0.30400
O 	O 	0.99113 0.71234 0.09654 -0.21100
O 	O 	0.04230 0.76606 0.15699 -0.29600
O 	O 	0.81043 0.86496 0.28755 -0.22500
O 	O 	0.75671 0.81379 0.22710 -0.29800
H 	H 	0.03360 0.06851 0.07061 0.30300
O 	O 	0.74882 0.82792 0.10402 -0.40500
O 	O 	0.77491 0.81281 0.16430 -0.39500
O 	O 	0.02819 0.77395 0.28008 -0.40600
O 	O 	0.85265 0.83430 0.34666 -0.21700
H 	H 	0.78759 0.82251 0.31349 0.30200
O 	O 	0.82051 0.78589 0.26911 -0.34900
O 	O 	0.68846 0.00344 0.03743 -0.20500
O 	O 	0.73687 0.03557 0.11498 -0.34800
O 	O 	0.73888 0.05228 0.28313 -0.36100
O 	O 	0.11744 0.05845 0.26339 -0.37500
O 	O 	0.80382 0.78388 0.10097 -0.36100
O 	O 	0.79765 0.73866 0.12071 -0.37500
O 	O 	0.79963 0.76572 0.19159 -0.53600
C 	C 	0.00132 0.74584 0.13295 0.22500
O 	O 	0.76470 0.80021 0.29232 -0.84900
C 	C 	0.77693 0.85478 0.25114 0.24000
C 	C 	0.10737 0.96059 0.18792 -0.01900
C 	C 	0.13602 0.94467 0.17244 -0.04700
C 	C 	0.13486 0.90413 0.16157 0.00800
C 	C 	0.11416 0.88408 0.17764 -0.09200
C 	C 	0.77104 0.90890 0.21461 0.04900
C 	C 	0.76471 0.89428 0.24536 -0.04900
C 	C 	0.76587 0.92716 0.28519 -0.01600
C 	C 	0.76835 0.96924 0.29196 -0.01700
C 	C 	0.76635 0.98430 0.25924 -0.05100
C 	C 	0.10500 0.95224 0.22224 0.00700
C 	C 	0.06742 0.95509 0.15144 0.05200
C 	C 	0.73461 0.96428 0.11676 -0.05500
C 	C 	0.03409 0.97027 0.08726 -0.02500
C 	C 	0.99652 0.95930 0.08640 -0.06700
C 	C 	0.99430 0.94495 0.11821 0.17100
O 	O 	0.95773 0.93414 0.11841 -0.19700
C 	C 	0.94960 0.96842 0.14697 -0.02900
C 	C 	0.02982 0.94310 0.15110 -0.12600
H 	H 	0.14972 0.95866 0.15689 0.04000
H 	H 	0.14722 0.88794 0.13777 0.04700
H 	H 	0.76894 0.92059 0.31419 0.04400
H 	H 	0.77646 0.99224 0.32545 0.05200
H 	H 	0.76358 0.97648 0.12051 0.04900
H 	H 	0.97010 0.96597 0.06505 0.09000
H 	H 	0.92038 0.95946 0.14752 0.05100
H 	H 	0.94648 0.99193 0.13338 0.05200
H 	H 	0.02764 0.93372 0.17666 0.08200
C 	C 	0.89552 0.74872 0.19618 -0.01900
C 	C 	0.91144 0.72008 0.21167 -0.04500
C 	C 	0.95198 0.72124 0.22253 0.00500
C 	C 	0.97202 0.74194 0.20646 -0.08200
C 	C 	0.94720 0.75173 0.16948 0.04400
C 	C 	0.96182 0.75806 0.13874 -0.03800
C 	C 	0.87180 0.75642 0.12486 -0.04800
C 	C 	0.90386 0.75110 0.16186 0.00900
C 	C 	0.90100 0.78867 0.23266 0.05300
C 	C 	0.89180 0.78814 0.26732 -0.05600
C 	C 	0.88581 0.82199 0.29683 -0.01600
C 	C 	0.89680 0.85958 0.29770 -0.07500
C 	C 	0.91114 0.86180 0.26589 0.16500
O 	O 	0.92195 0.89837 0.26570 -0.19600
C 	C 	0.88768 0.90651 0.23714 -0.02900
C 	C 	0.91300 0.82628 0.23301 -0.11800
H 	H 	0.89745 0.70637 0.22722 0.04000
H 	H 	0.96817 0.70889 0.24634 0.05000
H 	H 	0.89013 0.88599 0.31905 0.08800
H 	H 	0.89664 0.93573 0.23659 0.05000
H 	H 	0.87550 0.88316 0.20114 0.05500
H 	H 	0.86417 0.90962 0.25073 0.05200
H 	H 	0.92239 0.82846 0.20745 0.08300
C 	C 	0.76498 0.83987 0.39833 0.33500
Ni	Ni	0.74612 0.77665 0.31705 1.23400
Ni	Ni	0.75599 0.75714 0.38917 1.22800
Ni	Ni	0.76562 0.76678 0.49493 1.22800
H 	H 	0.81587 0.74468 0.43957 0.19600
C 	C 	0.85202 0.81317 0.55621 0.27200
H 	H 	0.74438 0.81586 0.53378 0.24300
C 	C 	0.70959 0.00406 0.32788 0.27700
C 	C 	0.09594 0.03214 0.51761 0.30700
H 	H 	0.06693 0.03517 0.43325 0.21100
H 	H 	0.82093 0.78912 0.45083 0.21100
C 	C 	0.82397 0.76015 0.36648 0.30300
O 	O 	0.99114 0.71233 0.34653 -0.21500
O 	O 	0.04231 0.76605 0.40699 -0.29600
O 	O 	0.81043 0.86496 0.53755 -0.22500
O 	O 	0.75670 0.81379 0.47710 -0.29800
H 	H 	0.03360 0.06851 0.32061 0.30000
O 	O 	0.74882 0.82792 0.35402 -0.40500
O 	O 	0.77491 0.81281 0.41430 -0.39500
O 	O 	0.02819 0.77395 0.53008 -0.40600
O 	O 	0.85265 0.83430 0.59666 -0.21700
H 	H 	0.78759 0.82251 0.56349 0.30200
O 	O 	0.82051 0.78589 0.51911 -0.34900
O 	O 	0.68846 0.00344 0.28743 -0.21700
O 	O 	0.73688 0.03557 0.36497 -0.34900
O 	O 	0.73888 0.05228 0.53313 -0.36100
O 	O 	0.11744 0.05845 0.51338 -0.37500
O 	O 	0.80382 0.78388 0.35097 -0.36000
O 	O 	0.79765 0.73865 0.37071 -0.37500
O 	O 	0.79964 0.76571 0.44158 -0.53600
C 	C 	0.00132 0.74583 0.38295 0.22500
O 	O 	0.76470 0.80021 0.54232 -0.84900
C 	C 	0.77693 0.85478 0.50114 0.24000
C 	C 	0.10737 0.96059 0.43792 -0.01900
C 	C 	0.13602 0.94467 0.42244 -0.04800
C 	C 	0.13487 0.90413 0.41157 0.00800
C 	C 	0.11416 0.88408 0.42764 -0.09300
C 	C 	0.77104 0.90890 0.46461 0.04900
C 	C 	0.76470 0.89428 0.49536 -0.04900
C 	C 	0.76587 0.92716 0.53519 -0.01600
C 	C 	0.76834 0.96924 0.54196 -0.01700
C 	C 	0.76635 0.98430 0.50924 -0.05100
C 	C 	0.10500 0.95224 0.47224 0.00700
C 	C 	0.06742 0.95509 0.40144 0.05100
C 	C 	0.73461 0.96428 0.36676 -0.05500
C 	C 	0.03410 0.97027 0.33725 -0.03100
C 	C 	0.99652 0.95929 0.33640 -0.06600
C 	C 	0.99430 0.94495 0.36821 0.17000
O 	O 	0.95773 0.93415 0.36841 -0.19700
C 	C 	0.94960 0.96842 0.39697 -0.02900
C 	C 	0.02982 0.94310 0.40110 -0.12600
H 	H 	0.14972 0.95866 0.40689 0.04000
H 	H 	0.14722 0.88794 0.38777 0.04600
H 	H 	0.76894 0.92059 0.56419 0.04400
H 	H 	0.77646 0.99224 0.57545 0.05300
H 	H 	0.76358 0.97648 0.37051 0.04800
H 	H 	0.97010 0.96596 0.31504 0.08500
H 	H 	0.92038 0.95947 0.39752 0.05000
H 	H 	0.94648 0.99193 0.38337 0.05100
H 	H 	0.02764 0.93372 0.42666 0.08200
C 	C 	0.89552 0.74872 0.44618 -0.01900
C 	C 	0.91144 0.72008 0.46167 -0.04600
C 	C 	0.95198 0.72124 0.47253 0.00500
C 	C 	0.97202 0.74194 0.45646 -0.08200
C 	C 	0.94720 0.75172 0.41948 0.04400
C 	C 	0.96182 0.75806 0.38873 -0.03900
C 	C 	0.87181 0.75642 0.37486 -0.04800
C 	C 	0.90386 0.75109 0.41186 0.00800
C 	C 	0.90100 0.78867 0.48266 0.05300
C 	C 	0.89180 0.78814 0.51732 -0.05600
C 	C 	0.88581 0.82199 0.54683 -0.01600
C 	C 	0.89680 0.85958 0.54770 -0.07500
C 	C 	0.91114 0.86180 0.51589 0.16500
O 	O 	0.92195 0.89837 0.51570 -0.19600
C 	C 	0.88769 0.90651 0.48714 -0.02900
C 	C 	0.91300 0.82628 0.48301 -0.11800
H 	H 	0.89745 0.70637 0.47722 0.04000
H 	H 	0.96817 0.70889 0.49634 0.05000
H 	H 	0.89013 0.88599 0.56905 0.08800
H 	H 	0.89664 0.93573 0.48659 0.05000
H 	H 	0.87550 0.88316 0.45114 0.05500
H 	H 	0.86418 0.90962 0.50073 0.05200
H 	H 	0.92239 0.82846 0.45745 0.08300
C 	C 	0.76498 0.83987 0.64833 0.33500
Ni	Ni	0.74612 0.77665 0.56705 1.23400
Ni	Ni	0.75599 0.75714 0.63917 1.22800
Ni	Ni	0.76562 0.76678 0.74493 1.22800
H 	H 	0.81587 0.74468 0.68957 0.19600
C 	C 	0.85202 0.81317 0.80621 0.27200
H 	H 	0.74438 0.81586 0.78378 0.24400
C 	C 	0.70959 0.00406 0.57788 0.27700
C 	C 	0.09594 0.03214 0.76761 0.30600
H 	H 	0.06693 0.03517 0.68325 0.21100
H 	H 	0.82093 0.78913 0.70083 0.21100
C 	C 	0.82397 0.76015 0.61648 0.30300
O 	O 	0.99114 0.71234 0.59654 -0.21500
O 	O 	0.04231 0.76606 0.65699 -0.29600
O 	O 	0.81043 0.86496 0.78755 -0.22500
O 	O 	0.75670 0.81379 0.72710 -0.29800
H 	H 	0.03360 0.06851 0.57061 0.30000
O 	O 	0.74882 0.82792 0.60402 -0.40500
O 	O 	0.77491 0.81281 0.66430 -0.39500
O 	O 	0.02819 0.77395 0.78008 -0.40600
O 	O 	0.85265 0.83430 0.84666 -0.21900
H 	H 	0.78759 0.82251 0.81349 0.30200
O 	O 	0.82051 0.78589 0.76911 -0.34900
O 	O 	0.68846 0.00344 0.53743 -0.21700
O 	O 	0.73688 0.03557 0.61498 -0.34900
O 	O 	0.73888 0.05228 0.78313 -0.36100
O 	O 	0.11744 0.05845 0.76338 -0.37500
O 	O 	0.80382 0.78388 0.60097 -0.36000
O 	O 	0.79765 0.73865 0.62071 -0.37500
O 	O 	0.79964 0.76571 0.69159 -0.53600
C 	C 	0.00132 0.74583 0.63295 0.22500
O 	O 	0.76470 0.80021 0.79232 -0.84900
C 	C 	0.77693 0.85478 0.75114 0.24100
C 	C 	0.10737 0.96059 0.68792 -0.01900
C 	C 	0.13602 0.94467 0.67244 -0.04800
C 	C 	0.13487 0.90413 0.66157 0.00800
C 	C 	0.11417 0.88408 0.67764 -0.09300
C 	C 	0.77104 0.90890 0.71461 0.04900
C 	C 	0.76471 0.89428 0.74536 -0.04900
C 	C 	0.76587 0.92716 0.78519 -0.01600
C 	C 	0.76835 0.96924 0.79196 -0.01700
C 	C 	0.76635 0.98430 0.75924 -0.05100
C 	C 	0.10500 0.95224 0.72224 0.00700
C 	C 	0.06742 0.95509 0.65144 0.05100
C 	C 	0.73461 0.96428 0.61676 -0.05500
C 	C 	0.03410 0.97027 0.58726 -0.03000
C 	C 	0.99652 0.95929 0.58640 -0.06600
C 	C 	0.99430 0.94495 0.61821 0.17000
O 	O 	0.95773 0.93415 0.61841 -0.19700
C 	C 	0.94960 0.96842 0.64697 -0.02900
C 	C 	0.02982 0.94310 0.65110 -0.12600
H 	H 	0.14972 0.95866 0.65689 0.04000
H 	H 	0.14722 0.88794 0.63777 0.04600
H 	H 	0.76895 0.92059 0.81419 0.04400
H 	H 	0.77646 0.99224 0.82546 0.05300
H 	H 	0.76358 0.97648 0.62051 0.04800
H 	H 	0.97010 0.96597 0.56505 0.08500
H 	H 	0.92038 0.95947 0.64752 0.05000
H 	H 	0.94648 0.99193 0.63337 0.05100
H 	H 	0.02764 0.93372 0.67666 0.08200
C 	C 	0.89552 0.74872 0.69618 -0.01900
C 	C 	0.91144 0.72008 0.71167 -0.04600
C 	C 	0.95198 0.72124 0.72253 0.00500
C 	C 	0.97202 0.74194 0.70646 -0.08200
C 	C 	0.94720 0.75172 0.66948 0.04400
C 	C 	0.96182 0.75806 0.63873 -0.03900
C 	C 	0.87181 0.75642 0.62486 -0.04800
C 	C 	0.90386 0.75109 0.66186 0.00800
C 	C 	0.90100 0.78867 0.73266 0.05200
C 	C 	0.89180 0.78814 0.76732 -0.05600
C 	C 	0.88581 0.82199 0.79683 -0.01600
C 	C 	0.89680 0.85958 0.79770 -0.07500
C 	C 	0.91114 0.86180 0.76589 0.16500
O 	O 	0.92195 0.89837 0.76570 -0.19600
C 	C 	0.88768 0.90650 0.73714 -0.02900
C 	C 	0.91300 0.82628 0.73301 -0.11800
H 	H 	0.89745 0.70637 0.72722 0.04000
H 	H 	0.96817 0.70889 0.74634 0.05000
H 	H 	0.89013 0.88599 0.81905 0.08700
H 	H 	0.89664 0.93572 0.73659 0.05000
H 	H 	0.87550 0.88315 0.70114 0.05500
H 	H 	0.86417 0.90962 0.75073 0.05200
H 	H 	0.92239 0.82846 0.70745 0.08300
C 	C 	0.76498 0.83987 0.89833 0.34000
Ni	Ni	0.74612 0.77665 0.81705 1.23400
Ni	Ni	0.75599 0.75713 0.88917 1.22800
Ni	Ni	0.76562 0.76678 0.99492 1.21200
H 	H 	0.81587 0.74467 0.93956 0.19200
C 	C 	0.85202 0.81317 0.05620 0.27300
H 	H 	0.74437 0.81586 0.03378 0.25000
C 	C 	0.70959 0.00406 0.82787 0.27700
C 	C 	0.09594 0.03214 0.01761 0.30200
H 	H 	0.06692 0.03518 0.93324 0.20700
H 	H 	0.82093 0.78912 0.95082 0.20400
C 	C 	0.82397 0.76015 0.86648 0.30300
O 	O 	0.99114 0.71233 0.84653 -0.21500
O 	O 	0.04231 0.76605 0.90699 -0.29600
O 	O 	0.81043 0.86496 0.03755 -0.23400
O 	O 	0.75670 0.81379 0.97710 -0.33200
H 	H 	0.03360 0.06851 0.82061 0.30000
O 	O 	0.74882 0.82792 0.85402 -0.40600
O 	O 	0.77491 0.81281 0.91431 -0.40000
O 	O 	0.02819 0.77395 0.03008 -0.37600
O 	O 	0.85265 0.83430 0.09666 -0.21700
H 	H 	0.78758 0.82251 0.06349 0.30100
O 	O 	0.82050 0.78590 0.01910 -0.33300
O 	O 	0.68846 0.00344 0.78742 -0.21700
O 	O 	0.73688 0.03557 0.86497 -0.34900
O 	O 	0.73888 0.05228 0.03313 -0.35200
O 	O 	0.11743 0.05845 0.01338 -0.35800
O 	O 	0.80382 0.78388 0.85097 -0.36100
O 	O 	0.79765 0.73865 0.87071 -0.37500
O 	O 	0.79964 0.76571 0.94158 -0.53800
C 	C 	0.00132 0.74583 0.88295 0.22500
O 	O 	0.76470 0.80021 0.04232 -0.83900
C 	C 	0.77693 0.85478 0.00114 0.30900
C 	C 	0.10737 0.96059 0.93792 -0.00400
C 	C 	0.13602 0.94466 0.92243 -0.06200
C 	C 	0.13487 0.90413 0.91157 0.01700
C 	C 	0.11416 0.88408 0.92764 -0.11100
C 	C 	0.77104 0.90890 0.96461 0.07800
C 	C 	0.76470 0.89428 0.99536 -0.12900
C 	C 	0.76586 0.92716 0.03519 0.04600
C 	C 	0.76834 0.96924 0.04195 -0.04500
C 	C 	0.76635 0.98430 0.00924 -0.00100
C 	C 	0.10500 0.95224 0.97224 -0.04500
C 	C 	0.06742 0.95509 0.90143 0.04200
C 	C 	0.73461 0.96427 0.86676 -0.05100
C 	C 	0.03410 0.97026 0.83725 -0.03200
C 	C 	0.99652 0.95929 0.83639 -0.06400
C 	C 	0.99430 0.94495 0.86821 0.16800
O 	O 	0.95773 0.93415 0.86840 -0.19800
C 	C 	0.94960 0.96842 0.89696 -0.02700
C 	C 	0.02982 0.94310 0.90109 -0.12400
H 	H 	0.14972 0.95866 0.90688 0.04100
H 	H 	0.14722 0.88794 0.88778 0.04300
H 	H 	0.76893 0.92059 0.06418 0.03100
H 	H 	0.77645 0.99224 0.07545 0.06000
H 	H 	0.76358 0.97648 0.87050 0.04700
H 	H 	0.97010 0.96596 0.81504 0.08500
H 	H 	0.92038 0.95947 0.89751 0.04800
H 	H 	0.94648 0.99193 0.88337 0.05100
H 	H 	0.02764 0.93372 0.92666 0.07600
C 	C 	0.89551 0.74872 0.94618 -0.01500
C 	C 	0.91144 0.72007 0.96167 -0.05000
C 	C 	0.95197 0.72124 0.97253 -0.00200
C 	C 	0.97202 0.74194 0.95646 -0.07500
C 	C 	0.94720 0.75172 0.91948 0.04000
C 	C 	0.96182 0.75806 0.88873 -0.03900
C 	C 	0.87181 0.75641 0.87486 -0.04800
C 	C 	0.90386 0.75109 0.91186 0.00800
C 	C 	0.90100 0.78867 0.98265 0.02000
C 	C 	0.89179 0.78814 0.01731 -0.01500
C 	C 	0.88581 0.82199 0.04682 -0.02200
C 	C 	0.89679 0.85958 0.04769 -0.07500
C 	C 	0.91114 0.86180 0.01589 0.19300
O 	O 	0.92196 0.89837 0.01570 -0.16800
C 	C 	0.88769 0.90651 0.98714 -0.10600
C 	C 	0.91300 0.82627 0.98301 -0.14500
H 	H 	0.89745 0.70637 0.97722 0.03100
H 	H 	0.96817 0.70889 0.99634 0.03900
H 	H 	0.89013 0.88599 0.06905 0.08900
H 	H 	0.89665 0.93573 0.98659 0.05600
H 	H 	0.87550 0.88316 0.95114 0.06700
H 	H 	0.86418 0.90962 0.00072 0.08900
H 	H 	0.92240 0.82846 0.95745 0.08400
C 	C 	0.34956 0.09113 0.23579 0.33500
H 	H 	0.44470 0.04022 0.19451 0.19700
H 	H 	0.37358 0.11172 0.10034 0.24500
O 	O 	0.37662 0.08120 0.21981 -0.39500
O 	O 	0.42369 0.05647 0.19250 -0.53700
O 	O 	0.38923 0.09140 0.09179 -0.85000
H 	H 	0.30628 0.98061 0.18296 0.05400
C 	C 	0.26227 0.09023 0.09892 -0.01500
C 	C 	0.22020 0.08776 0.09215 -0.01700
H 	H 	0.26884 0.08717 0.06992 0.04900
H 	H 	0.19720 0.07966 0.05866 0.05700
C 	C 	0.34956 0.09113 0.48579 0.33500
H 	H 	0.44470 0.04021 0.44451 0.19700
H 	H 	0.37358 0.11172 0.35033 0.24300
O 	O 	0.37662 0.08120 0.46981 -0.39500
O 	O 	0.42368 0.05647 0.44250 -0.53600
O 	O 	0.38923 0.09139 0.34178 -0.84800
H 	H 	0.30628 0.98061 0.43296 0.05400
C 	C 	0.26227 0.09023 0.34891 -0.01500
C 	C 	0.22020 0.08776 0.34215 -0.01800
H 	H 	0.26884 0.08716 0.31992 0.04400
H 	H 	0.19720 0.07965 0.30865 0.05500
C 	C 	0.34956 0.09113 0.73579 0.33500
H 	H 	0.44470 0.04021 0.69451 0.19700
H 	H 	0.37358 0.11172 0.60033 0.24300
O 	O 	0.37662 0.08120 0.71981 -0.39500
O 	O 	0.42368 0.05647 0.69250 -0.53600
O 	O 	0.38923 0.09139 0.59179 -0.84800
H 	H 	0.30628 0.98061 0.68296 0.05400
C 	C 	0.26228 0.09023 0.59891 -0.01500
C 	C 	0.22020 0.08776 0.59215 -0.01800
H 	H 	0.26884 0.08717 0.56992 0.04400
H 	H 	0.19720 0.07965 0.55866 0.05500
C 	C 	0.34956 0.09113 0.98579 0.29700
H 	H 	0.44469 0.04021 0.94451 0.19000
H 	H 	0.37359 0.11172 0.85033 0.24300
O 	O 	0.37661 0.08120 0.96981 -0.39500
O 	O 	0.42367 0.05647 0.94249 -0.53900
O 	O 	0.38923 0.09139 0.84178 -0.84800
H 	H 	0.30628 0.98061 0.93296 0.04900
C 	C 	0.26227 0.09022 0.84891 -0.01600
C 	C 	0.22020 0.08775 0.84214 -0.01800
H 	H 	0.26884 0.08716 0.81991 0.04400
H 	H 	0.19720 0.07964 0.80865 0.05500
C 	C 	0.68290 0.09113 0.23579 0.33500
H 	H 	0.77804 0.04022 0.19451 0.19700
H 	H 	0.70692 0.11172 0.10034 0.24500
O 	O 	0.70995 0.08120 0.21981 -0.39500
O 	O 	0.75702 0.05647 0.19250 -0.53600
O 	O 	0.72256 0.09140 0.09179 -0.85100
H 	H 	0.63961 0.98061 0.18296 0.05400
C 	C 	0.59561 0.09023 0.09892 -0.01500
C 	C 	0.55353 0.08776 0.09215 -0.01700
H 	H 	0.60218 0.08717 0.06992 0.04900
H 	H 	0.53054 0.07966 0.05866 0.05700
C 	C 	0.68290 0.09113 0.48579 0.33500
H 	H 	0.77803 0.04021 0.44451 0.19700
H 	H 	0.70692 0.11172 0.35033 0.24300
O 	O 	0.70995 0.08120 0.46981 -0.39500
O 	O 	0.75702 0.05647 0.44250 -0.53600
O 	O 	0.72256 0.09139 0.34178 -0.84900
H 	H 	0.63961 0.98061 0.43296 0.05400
C 	C 	0.59561 0.09023 0.34891 -0.01500
C 	C 	0.55353 0.08776 0.34215 -0.01800
H 	H 	0.60218 0.08716 0.31992 0.04400
H 	H 	0.53054 0.07965 0.30865 0.05500
C 	C 	0.68290 0.09113 0.73579 0.33500
H 	H 	0.77804 0.04021 0.69451 0.19700
H 	H 	0.70692 0.11172 0.60033 0.24300
O 	O 	0.70995 0.08120 0.71981 -0.39500
O 	O 	0.75702 0.05647 0.69250 -0.53600
O 	O 	0.72256 0.09139 0.59179 -0.84900
H 	H 	0.63961 0.98061 0.68296 0.05400
C 	C 	0.59561 0.09023 0.59891 -0.01500
C 	C 	0.55353 0.08776 0.59215 -0.01800
H 	H 	0.60218 0.08717 0.56992 0.04400
H 	H 	0.53054 0.07965 0.55866 0.05500
C 	C 	0.68289 0.09113 0.98579 0.29700
H 	H 	0.77802 0.04021 0.94451 0.19000
H 	H 	0.70692 0.11172 0.85033 0.24300
O 	O 	0.70995 0.08120 0.96981 -0.39500
O 	O 	0.75701 0.05647 0.94249 -0.53900
O 	O 	0.72256 0.09139 0.84178 -0.84900
H 	H 	0.63961 0.98061 0.93296 0.04900
C 	C 	0.59561 0.09022 0.84891 -0.01600
C 	C 	0.55353 0.08775 0.84214 -0.01800
H 	H 	0.60218 0.08716 0.81991 0.04400
H 	H 	0.53054 0.07964 0.80865 0.05500
C 	C 	0.01623 0.09113 0.23579 0.32600
H 	H 	0.11137 0.04022 0.19451 0.19700
H 	H 	0.04025 0.11172 0.10034 0.24300
O 	O 	0.04328 0.08120 0.21981 -0.39400
O 	O 	0.09035 0.05647 0.19250 -0.53700
O 	O 	0.05590 0.09140 0.09179 -0.85000
H 	H 	0.97294 0.98061 0.18296 0.05600
C 	C 	0.92894 0.09023 0.09892 -0.01800
C 	C 	0.88687 0.08776 0.09215 -0.01500
H 	H 	0.93551 0.08717 0.06992 0.05100
H 	H 	0.86387 0.07966 0.05866 0.05700
C 	C 	0.01623 0.09113 0.48579 0.32600
H 	H 	0.11137 0.04021 0.44451 0.19700
H 	H 	0.04025 0.11172 0.35033 0.24200
O 	O 	0.04328 0.08120 0.46981 -0.39400
O 	O 	0.09035 0.05647 0.44250 -0.53600
O 	O 	0.05590 0.09139 0.34178 -0.84800
H 	H 	0.97295 0.98061 0.43296 0.05600
C 	C 	0.92894 0.09023 0.34891 -0.01900
C 	C 	0.88687 0.08776 0.34215 -0.01600
H 	H 	0.93551 0.08716 0.31992 0.04600
H 	H 	0.86387 0.07965 0.30865 0.05400
C 	C 	0.01623 0.09113 0.73579 0.32600
H 	H 	0.11137 0.04021 0.69451 0.19700
H 	H 	0.04025 0.11172 0.60033 0.24200
O 	O 	0.04328 0.08120 0.71981 -0.39400
O 	O 	0.09035 0.05647 0.69250 -0.53600
O 	O 	0.05590 0.09139 0.59179 -0.84800
H 	H 	0.97295 0.98061 0.68296 0.05600
C 	C 	0.92894 0.09023 0.59891 -0.01900
C 	C 	0.88687 0.08776 0.59215 -0.01600
H 	H 	0.93551 0.08717 0.56992 0.04600
H 	H 	0.86387 0.07965 0.55866 0.05400
C 	C 	0.01623 0.09113 0.98579 0.28800
H 	H 	0.11136 0.04021 0.94451 0.19000
H 	H 	0.04025 0.11172 0.85033 0.24200
O 	O 	0.04328 0.08120 0.96981 -0.39400
O 	O 	0.09034 0.05647 0.94249 -0.53800
O 	O 	0.05590 0.09139 0.84178 -0.84800
H 	H 	0.97295 0.98061 0.93296 0.05100
C 	C 	0.92894 0.09022 0.84891 -0.01900
C 	C 	0.88687 0.08775 0.84214 -0.01600
H 	H 	0.93551 0.08716 0.81991 0.04600
H 	H 	0.86387 0.07964 0.80865 0.05400
C 	C 	0.33465 0.07916 0.13295 0.24000
C 	C 	0.24477 0.05341 0.21167 -0.04700
C 	C 	0.28531 0.05457 0.22254 0.00900
C 	C 	0.30535 0.07528 0.20647 -0.09200
H 	H 	0.23078 0.03970 0.22722 0.04100
C 	C 	0.33465 0.07916 0.38295 0.24100
C 	C 	0.24477 0.05341 0.46167 -0.04700
C 	C 	0.28531 0.05457 0.47254 0.00900
C 	C 	0.30535 0.07528 0.45647 -0.09200
H 	H 	0.23078 0.03970 0.47722 0.04100
C 	C 	0.33466 0.07916 0.63295 0.24100
C 	C 	0.24478 0.05340 0.71167 -0.04700
C 	C 	0.28531 0.05457 0.72254 0.00900
C 	C 	0.30535 0.07528 0.70647 -0.09200
H 	H 	0.23078 0.03970 0.72722 0.04100
C 	C 	0.33465 0.07915 0.88295 0.24000
C 	C 	0.24477 0.05340 0.96167 -0.05200
C 	C 	0.28531 0.05457 0.97254 0.00200
C 	C 	0.30535 0.07527 0.95648 -0.08600
H 	H 	0.23078 0.03970 0.97722 0.03300
C 	C 	0.66799 0.07916 0.13295 0.24000
C 	C 	0.57811 0.05341 0.21167 -0.04700
C 	C 	0.61864 0.05457 0.22254 0.00900
C 	C 	0.63869 0.07528 0.20647 -0.09200
H 	H 	0.56412 0.03970 0.22722 0.04100
C 	C 	0.66799 0.07916 0.38295 0.24100
C 	C 	0.57811 0.05341 0.46167 -0.04700
C 	C 	0.61864 0.05457 0.47254 0.00900
C 	C 	0.63869 0.07528 0.45647 -0.09200
H 	H 	0.56412 0.03970 0.47722 0.04100
C 	C 	0.66799 0.07916 0.63295 0.24100
C 	C 	0.57811 0.05340 0.71167 -0.04800
C 	C 	0.61864 0.05457 0.72254 0.00900
C 	C 	0.63869 0.07528 0.70647 -0.09200
H 	H 	0.56412 0.03970 0.72722 0.04100
C 	C 	0.66799 0.07915 0.88295 0.24000
C 	C 	0.57811 0.05340 0.96167 -0.05200
C 	C 	0.61864 0.05457 0.97254 0.00200
C 	C 	0.63868 0.07527 0.95648 -0.08600
H 	H 	0.56411 0.03970 0.97722 0.03200
C 	C 	0.00132 0.07916 0.13295 0.22500
C 	C 	0.91144 0.05341 0.21167 -0.04500
C 	C 	0.95198 0.05457 0.22254 0.00500
C 	C 	0.97202 0.07528 0.20647 -0.08200
H 	H 	0.89745 0.03970 0.22722 0.04100
C 	C 	0.00132 0.07916 0.38295 0.22500
C 	C 	0.91144 0.05341 0.46167 -0.04500
C 	C 	0.95198 0.05457 0.47254 0.00500
C 	C 	0.97202 0.07528 0.45647 -0.08200
H 	H 	0.89745 0.03970 0.47722 0.04100
C 	C 	0.00132 0.07916 0.63295 0.22500
C 	C 	0.91144 0.05340 0.71167 -0.04500
C 	C 	0.95198 0.05457 0.72254 0.00500
C 	C 	0.97202 0.07528 0.70647 -0.08100
H 	H 	0.89745 0.03970 0.72722 0.04100
C 	C 	0.00132 0.07915 0.88295 0.22400
C 	C 	0.91144 0.05340 0.96167 -0.05000
C 	C 	0.95197 0.05457 0.97254 -0.00100
C 	C 	0.97202 0.07527 0.95648 -0.07500
H 	H 	0.89745 0.03970 0.97722 0.03200
H 	H 	0.21291 0.09249 0.26356 0.05000
H 	H 	0.21291 0.09249 0.51356 0.05000
H 	H 	0.21291 0.09249 0.76356 0.05000
H 	H 	0.21290 0.09249 0.01355 0.05000
H 	H 	0.54624 0.09249 0.26356 0.05000
H 	H 	0.54624 0.09249 0.51356 0.05000
H 	H 	0.54624 0.09249 0.76356 0.05000
H 	H 	0.54624 0.09249 0.01355 0.05000
H 	H 	0.87958 0.09249 0.26356 0.05000
H 	H 	0.87957 0.09249 0.51356 0.05000
H 	H 	0.87958 0.09249 0.76356 0.05000
H 	H 	0.87957 0.09249 0.01355 0.05000
