data_crystal

_cell_length_a 15.78490
_cell_length_b 33.97070
_cell_length_c 37.73870
_cell_angle_alpha 111.02690
_cell_angle_beta  90.65160
_cell_angle_gamma 90.69400

_symmetry_space_group_name_	'P 1'
_symmetry_space_group_name_H-M	'P 1'

loop_
_symmetry_equiv_pos_as_xyz
  x,y,z

loop_
_atom_site_label
_atom_site_type_symbol
_atom_site_fract_x
_atom_site_fract_y
_atom_site_fract_z
_atom_site_charge
Mn	Mn	0.08235 0.33285 0.15021 1.20300
Mn	Mn	0.25857 0.33514 0.09970 1.27500
Mn	Mn	0.50220 0.16322 0.88153 1.21600
Mn	Mn	0.30254 0.16503 0.91626 1.27500
Mn	Mn	0.26969 0.24632 0.00979 1.26400
C 	C 	0.22610 0.34670 0.20954 0.09700
N 	N 	0.19745 0.33566 0.17344 -0.26500
N 	N 	0.26392 0.33787 0.15370 -0.20000
N 	N 	0.33080 0.35172 0.17631 -0.07000
N 	N 	0.30967 0.35644 0.21134 -0.09600
N 	N 	0.37482 0.28002 0.11555 -0.11300
N 	N 	0.34577 0.28912 0.08654 -0.20500
N 	N 	0.33617 0.25335 0.05719 -0.20400
N 	N 	0.35527 0.22085 0.06702 -0.10800
C 	C 	0.38166 0.23802 0.10332 0.12100
C 	C 	0.29576 0.36732 0.00999 0.11700
N 	N 	0.25776 0.33866 0.04858 -0.20600
N 	N 	0.26511 0.37552 0.04491 -0.10800
N 	N 	0.15927 0.26064 0.04576 -0.21400
N 	N 	0.17312 0.28816 0.08111 -0.20400
N 	N 	0.12119 0.28238 0.10557 -0.21700
N 	N 	1.07334 0.24929 0.08838 -0.12500
N 	N 	0.28365 0.30866 0.01794 -0.20200
N 	N 	0.30955 0.32534 -0.00720 -0.10600
C 	C 	0.08974 0.23744 0.05076 0.10700
N 	N 	0.40119 0.17440 0.85391 -0.25800
N 	N 	0.32457 0.17468 0.86735 -0.19700
N 	N 	0.26717 0.17461 0.84163 -0.06400
N 	N 	0.30573 0.17511 0.81086 -0.09500
N 	N 	0.16764 0.21321 0.90133 -0.11200
N 	N 	0.21207 0.20737 0.92858 -0.21600
N 	N 	0.20285 0.23914 0.96091 -0.19500
N 	N 	0.15156 0.26692 0.95510 -0.10100
N 	N 	0.21412 0.16341 0.01731 -0.10300
N 	N 	0.25509 0.18261 -0.00263 -0.20000
N 	N 	0.28024 0.15427 0.96489 -0.19700
N 	N 	0.25902 0.11611 0.96333 -0.10400
N 	N 	0.38531 0.23426 0.97989 -0.22200
N 	N 	0.38673 0.21063 0.94321 -0.20400
N 	N 	0.46342 0.20978 0.92944 -0.21400
N 	N 	0.51618 0.23177 0.95664 -0.12300
Cl	Cl	0.14137 0.37502 0.11885 -0.75900
Cl	Cl	0.41242 0.11981 0.89916 -0.77300
C 	C 	0.38929 0.17476 0.81860 0.11200
C 	C 	0.12876 0.24971 0.91785 0.11700
C 	C 	0.21818 0.12172 -0.00421 0.10900
C 	C 	0.46981 0.24638 0.98855 0.12300
Mn	Mn	0.60540 0.89128 0.15823 1.23200
Mn	Mn	0.78655 0.84445 0.11560 1.27600
Mn	Mn	0.89231 0.64933 0.87133 1.20500
Mn	Mn	0.70959 0.68077 0.92649 1.27600
Mn	Mn	0.74661 0.75888 0.02417 1.26200
C 	C 	0.65844 0.83702 0.20569 0.10900
N 	N 	0.67397 0.85441 0.17930 -0.24800
N 	N 	0.74879 0.84056 0.16548 -0.19700
N 	N 	0.78105 0.81700 0.18332 -0.05800
N 	N 	0.72633 0.81450 0.20885 -0.09300
N 	N 	0.88583 0.77721 0.12237 -0.11500
N 	N 	0.83593 0.78722 0.09913 -0.21300
N 	N 	0.81500 0.75368 0.06924 -0.19300
N 	N 	0.84839 0.71972 0.07353 -0.10200
C 	C 	0.89468 0.73559 0.10659 0.12600
C 	C 	0.86069 0.87090 0.02486 0.12100
N 	N 	0.81632 0.84789 0.06622 -0.20400
N 	N 	0.85111 0.88154 0.06244 -0.10200
N 	N 	0.65154 0.78879 0.06205 -0.23100
N 	N 	0.67278 0.82176 0.09302 -0.20100
N 	N 	0.60562 0.84273 0.10889 -0.21300
N 	N 	0.53795 0.82436 0.09025 -0.12100
N 	N 	0.80420 0.81743 0.03291 -0.19000
N 	N 	0.83307 0.83054 0.00595 -0.10600
C 	C 	0.56398 0.79045 0.06142 0.12400
N 	N 	0.79559 0.67899 0.85597 -0.25700
N 	N 	0.72839 0.69158 0.87760 -0.19600
N 	N 	0.66829 0.70312 0.85894 -0.06500
N 	N 	0.69556 0.69901 0.82488 -0.09500
N 	N 	0.60401 0.74927 0.92810 -0.11500
N 	N 	0.65078 0.73516 0.94975 -0.21300
N 	N 	0.67698 0.76656 0.98043 -0.19200
N 	N 	0.64941 0.80282 0.97877 -0.10000
N 	N 	0.64782 0.68302 0.03272 -0.10400
N 	N 	0.69098 0.69867 0.01041 -0.19400
N 	N 	0.68923 0.67028 0.97515 -0.19800
N 	N 	0.64615 0.63637 0.97353 -0.10800
N 	N 	0.84355 0.73102 0.98826 -0.22400
N 	N 	0.82088 0.70785 0.94662 -0.22700
N 	N 	0.90039 0.69691 0.92292 -0.23100
N 	N 	-0.02104 0.71274 0.94917 -0.11200
Cl	Cl	0.72812 0.90934 0.13638 -0.77200
Cl	Cl	0.78392 0.62083 0.89670 -0.77000
C 	C 	0.77446 0.68344 0.82271 0.09800
C 	C 	0.60346 0.79109 0.94579 0.12200
C 	C 	0.61971 0.64419 0.00893 0.10800
C 	C 	0.94706 0.73633 0.99297 0.06100
Mn	Mn	0.12331 0.63257 0.38488 1.22500
Mn	Mn	0.30775 0.68404 0.42492 1.27700
Mn	Mn	0.45997 0.88861 0.65907 1.21100
Mn	Mn	0.27340 0.84196 0.61766 1.27600
Mn	Mn	0.28061 0.76645 0.51915 1.25400
C 	C 	0.17256 0.68117 0.33216 0.11800
N 	N 	0.18753 0.66913 0.36188 -0.25700
N 	N 	0.26173 0.68628 0.37568 -0.19900
N 	N 	0.29333 0.70678 0.35489 -0.05900
N 	N 	0.23829 0.70455 0.32754 -0.09300
N 	N 	0.38479 0.75383 0.41418 -0.11800
N 	N 	0.35524 0.74185 0.44094 -0.21900
N 	N 	0.33602 0.77458 0.47139 -0.19100
N 	N 	0.34812 0.80973 0.46324 -0.10100
C 	C 	0.37981 0.79560 0.42708 0.11500
C 	C 	0.36613 0.64743 0.50944 0.12500
N 	N 	0.34819 0.68015 0.47243 -0.21100
N 	N 	0.37161 0.64348 0.47311 -0.10300
N 	N 	0.17710 0.73677 0.48189 -0.22200
N 	N 	0.19532 0.70546 0.44928 -0.19700
N 	N 	0.12827 0.68149 0.43474 -0.21300
N 	N 	1.06382 0.69441 0.45671 -0.12500
N 	N 	0.32975 0.70644 0.50665 -0.19500
N 	N 	0.33901 0.68642 0.53096 -0.10600
C 	C 	0.09136 0.72899 0.48567 0.11600
N 	N 	0.39627 0.84917 0.67935 -0.25900
N 	N 	0.32373 0.83207 0.66312 -0.20100
N 	N 	0.28963 0.80907 0.68116 -0.05900
N 	N 	0.34017 0.81033 0.70967 -0.09200
N 	N 	0.18052 0.77236 0.62188 -0.11400
N 	N 	0.22832 0.78373 0.59906 -0.21700
N 	N 	0.21725 0.75799 0.56381 -0.19400
N 	N 	0.15663 0.72966 0.56295 -0.10200
N 	N 	0.20714 0.84951 0.51463 -0.10200
N 	N 	0.23127 0.82740 0.53590 -0.19200
N 	N 	0.22670 0.85211 0.57222 -0.20400
N 	N 	0.20035 0.88981 0.57580 -0.10200
N 	N 	0.39179 0.79394 0.55603 -0.21700
N 	N 	0.37939 0.82451 0.58965 -0.20800
N 	N 	0.45017 0.84366 0.60615 -0.21400
N 	N 	0.51437 0.82610 0.58560 -0.12300
Cl	Cl	0.25036 0.61768 0.40498 -0.77600
Cl	Cl	0.33188 0.90793 0.64259 -0.77300
C 	C 	0.40670 0.83513 0.70852 0.11000
C 	C 	0.13447 0.73953 0.60013 0.11300
C 	C 	0.18865 0.88852 0.54031 0.11800
C 	C 	0.48120 0.79445 0.55543 0.11100
Mn	Mn	0.59804 0.11823 0.37609 1.22600
Mn	Mn	0.77256 0.18094 0.41009 1.27600
Mn	Mn	0.89097 0.35133 0.65842 1.20600
Mn	Mn	0.71079 0.32737 0.60212 1.27400
Mn	Mn	0.74748 0.25722 0.50529 1.26600
C 	C 	0.60722 0.17002 0.32323 0.11200
N 	N 	0.64030 0.15792 0.35071 -0.25200
N 	N 	0.70778 0.18252 0.36387 -0.19500
N 	N 	0.71661 0.20915 0.34587 -0.05800
N 	N 	0.65524 0.20164 0.31977 -0.09300
N 	N 	0.85152 0.25300 0.40383 -0.11500
N 	N 	0.80178 0.24243 0.42656 -0.20900
N 	N 	0.81688 0.26683 0.46224 -0.19300
N 	N 	0.88365 0.29195 0.46348 -0.09900
C 	C 	0.90419 0.28277 0.42625 0.11300
C 	C 	0.86555 0.14690 0.49558 0.11300
N 	N 	0.82642 0.17692 0.45750 -0.19800
N 	N 	0.86567 0.14323 0.45863 -0.09900
N 	N 	0.64691 0.22889 0.46675 -0.22300
N 	N 	0.66566 0.19490 0.43700 -0.21000
N 	N 	0.60160 0.16840 0.42536 -0.21200
N 	N 	0.53718 0.18347 0.44668 -0.12100
N 	N 	0.80268 0.20025 0.49192 -0.19800
N 	N 	0.82621 0.18269 0.51653 -0.10200
C 	C 	0.56139 0.22176 0.47131 0.12100
N 	N 	0.79414 0.31909 0.66903 -0.26600
N 	N 	0.72412 0.31237 0.64841 -0.20400
N 	N 	0.66487 0.29589 0.66325 -0.06600
N 	N 	0.69655 0.29005 0.69339 -0.09600
N 	N 	0.59914 0.25490 0.59341 -0.11100
N 	N 	0.64858 0.27294 0.57556 -0.21400
N 	N 	0.67649 0.24436 0.54435 -0.20000
N 	N 	0.64599 0.20655 0.54080 -0.10300
N 	N 	0.65693 0.33287 0.49821 -0.10500
N 	N 	0.69533 0.31574 0.52049 -0.20000
N 	N 	0.69638 0.34269 0.55593 -0.20300
N 	N 	0.65947 0.37784 0.55801 -0.10700
N 	N 	0.84332 0.28357 0.54674 -0.22600
N 	N 	0.82135 0.30010 0.58289 -0.20200
N 	N 	0.88825 0.30715 0.60569 -0.21300
N 	N 	-0.04335 0.29494 0.58576 -0.12900
Cl	Cl	0.73509 0.11156 0.39014 -0.78200
Cl	Cl	0.79193 0.38516 0.63417 -0.77800
C 	C 	0.77775 0.30387 0.69658 0.09900
C 	C 	0.59741 0.21366 0.57165 0.11900
C 	C 	0.63469 0.37176 0.52225 0.11400
C 	C 	0.93023 0.28104 0.54915 0.12000
C 	C 	0.51958 0.25427 0.02490 -0.06500
C 	C 	0.57232 0.21931 1.02299 0.01900
C 	C 	0.53611 0.17692 1.02158 0.03000
C 	C 	0.59207 0.15561 1.04304 -0.16400
C 	C 	0.52236 0.14673 0.98090 -0.17800
C 	C 	0.66066 0.22259 1.01870 -0.07100
C 	C 	0.69972 0.26090 1.02229 0.01000
C 	C 	0.79598 0.26593 1.02036 0.06400
O 	O 	0.81416 0.30189 1.01129 -0.27100
C 	C 	0.84304 0.22683 0.99232 0.00500
C 	C 	0.86728 0.19262 1.00968 -0.09300
C 	C 	0.96562 0.18870 1.01035 0.03400
C 	C 	0.99482 0.17294 0.96912 -0.09500
C 	C 	0.95850 0.20187 0.94930 -0.01500
N 	N 	0.92050 0.24013 0.97676 -0.10000
C 	C 	0.98503 0.26107 1.00702 -0.00900
C 	C 	1.00260 0.23352 0.03072 -0.08600
C 	C 	0.65009 0.29694 0.03517 -0.06800
C 	C 	0.56186 0.29443 0.03980 0.00900
C 	C 	0.52327 0.32989 0.07248 0.03300
C 	C 	0.55753 0.37431 0.07725 -0.17700
C 	C 	0.54038 0.32217 0.10967 -0.17500
H 	H 	0.47404 0.18195 0.03530 0.02400
H 	H 	0.62196 0.17931 0.06877 0.05200
H 	H 	0.64404 0.13774 1.02496 0.05400
H 	H 	0.55322 0.13290 1.05139 0.06100
H 	H 	0.46946 0.15832 0.96850 0.07100
H 	H 	0.50422 0.11474 0.98013 0.07200
H 	H 	0.58028 0.14459 0.96390 0.04100
H 	H 	0.69902 0.19514 1.01315 0.03600
H 	H 	0.82125 0.27259 0.04956 0.00700
H 	H 	0.79161 0.29640 0.98525 0.13800
H 	H 	0.79810 0.21191 0.96809 0.01700
H 	H 	0.84233 0.20042 0.03880 0.03000
H 	H 	0.83872 0.16157 0.99198 0.03600
H 	H 	0.98484 0.16696 0.02498 0.01000
H 	H 	0.97132 0.14032 0.95414 0.03800
H 	H 	0.06520 0.17315 0.96827 0.04300
H 	H 	0.91035 0.18398 0.92773 0.02200
H 	H 	0.00943 0.21145 0.93475 0.03800
H 	H 	0.04354 0.26682 0.99468 0.04200
H 	H 	0.96407 0.29291 1.02532 0.04500
H 	H 	0.95689 0.24735 0.05425 0.03700
H 	H 	0.68208 0.32735 0.04493 0.04900
H 	H 	0.45417 0.32971 0.06700 0.00100
H 	H 	0.61777 0.38211 0.09408 0.05500
H 	H 	0.57069 0.37690 0.04941 0.06000
H 	H 	0.51085 0.39846 0.09259 0.05100
H 	H 	0.49981 0.34268 0.13259 0.05500
H 	H 	0.52832 0.28867 0.10585 0.07200
H 	H 	0.60784 0.32892 0.11888 0.05400
C 	C 	-0.00062 0.73267 0.02462 -0.04100
C 	C 	0.04996 0.76539 0.05090 0.00500
C 	C 	0.04114 0.81164 0.05619 0.02700
C 	C 	0.12044 0.82653 0.04088 -0.17900
C 	C 	0.02860 0.84010 0.09784 -0.16400
C 	C 	0.12100 0.75376 0.06783 -0.05800
C 	C 	0.15460 0.71327 0.05102 0.00600
C 	C 	0.25044 0.70614 0.05262 0.05900
O 	O 	0.27254 0.70195 0.08735 -0.26600
C 	C 	0.30412 0.74197 0.04556 0.00900
C 	C 	0.35790 0.73245 0.00894 -0.10000
C 	C 	0.43058 0.76701 0.01819 0.02400
C 	C 	0.39182 0.81094 0.04103 -0.09300
C 	C 	0.36007 0.81065 0.08018 -0.00700
N 	N 	0.35679 0.76666 0.07936 -0.10400
C 	C 	0.44440 0.74873 0.07635 -0.00800
C 	C 	0.49732 0.75577 0.04363 -0.08800
C 	C 	0.10047 0.68103 0.02837 -0.06800
C 	C 	0.01939 0.69069 0.01804 0.02500
C 	C 	-0.04755 0.65782 -0.00177 -0.02800
C 	C 	-0.01581 0.61205 0.98417 -0.13800
C 	C 	0.90315 0.66839 0.96630 -0.03600
H 	H 	-0.01515 0.81528 0.04000 0.02200
H 	H 	0.12569 0.80936 0.00984 0.06100
H 	H 	0.17840 0.82169 0.05504 0.06000
H 	H 	0.12028 0.86074 0.04709 0.06300
H 	H 	0.96726 0.83324 0.10810 0.02800
H 	H 	1.02726 0.87377 0.10056 0.05200
H 	H 	0.07995 0.83647 0.11669 0.05600
H 	H 	0.16013 0.77788 0.08833 0.03800
H 	H 	0.26528 0.67592 0.02991 0.01900
H 	H 	0.25221 0.72721 0.10824 0.13900
H 	H 	0.25621 0.76282 0.04022 0.02600
H 	H 	0.38566 0.70064 0.00027 0.04300
H 	H 	0.31760 0.73333 -0.01517 0.03600
H 	H 	0.45980 0.76753 -0.00832 0.01600
H 	H 	0.33760 0.81658 0.02452 0.03900
H 	H 	0.43771 0.83726 0.04481 0.04200
H 	H 	0.29666 0.82516 0.08677 0.01800
H 	H 	0.39703 0.83115 0.10518 0.01400
H 	H 	0.47741 0.76201 0.10449 0.03100
H 	H 	0.43990 0.71422 0.07060 0.04200
H 	H 	0.52912 0.72653 0.02631 0.04300
H 	H 	0.12311 0.64908 0.01813 0.03900
H 	H 	0.90582 0.65943 0.02030 0.03800
H 	H 	0.03592 0.60787 0.96347 0.04100
H 	H 	0.00733 0.60368 0.00841 0.04400
H 	H 	-0.06848 0.58978 0.97011 0.05200
H 	H 	0.83971 0.65448 0.96832 0.04000
H 	H 	0.89540 0.75173 0.95507 0.06000
H 	H 	-0.07354 0.64270 0.94016 0.00000
C 	C 	0.54727 0.76245 0.53670 -0.05200
C 	C 	0.59416 0.77160 0.50817 0.00300
C 	C 	0.55121 0.78569 0.47921 0.02900
C 	C 	0.58573 0.76256 0.43909 -0.17300
C 	C 	0.55827 0.83385 0.49093 -0.17500
C 	C 	0.68300 0.77640 0.51083 -0.06000
C 	C 	0.72951 0.76813 0.53865 0.00200
C 	C 	0.82270 0.78085 0.54853 0.06000
O 	O 	0.82944 0.80604 0.58724 -0.27500
C 	C 	0.86695 0.80425 0.52501 0.00800
C 	C 	0.87782 0.77588 0.48243 -0.10300
C 	C 	0.97277 0.77310 0.47352 0.02900
C 	C 	1.00534 0.81791 0.47924 -0.09500
C 	C 	0.98271 0.84788 0.51976 -0.01400
N 	N 	0.95045 0.82370 0.54258 -0.10200
C 	C 	1.01596 0.79195 0.54220 -0.01400
C 	C 	1.01740 0.75721 0.50279 -0.08300
C 	C 	0.68697 0.75055 0.56132 -0.05600
C 	C 	0.59764 0.74814 0.56227 0.00300
C 	C 	0.56705 0.74144 0.59849 0.04100
C 	C 	0.60939 0.70242 0.60299 -0.18300
C 	C 	0.47111 0.73994 0.60323 -0.19000
H 	H 	0.48479 0.77675 0.47891 0.02400
H 	H 	0.58786 0.72807 0.43301 0.05300
H 	H 	0.65027 0.77402 0.43582 0.05400
H 	H 	0.54504 0.76755 0.41715 0.06200
H 	H 	0.54804 0.84976 0.52182 0.06100
H 	H 	0.50861 0.84504 0.47632 0.06500
H 	H 	0.62135 0.84381 0.48406 0.05500
H 	H 	0.71449 0.78951 0.49236 0.03500
H 	H 	0.85716 0.75136 0.54455 0.02300
H 	H 	0.79817 0.83242 0.59103 0.12700
H 	H 	0.82435 0.83057 0.52604 0.02300
H 	H 	0.85024 0.74370 0.47594 0.03900
H 	H 	0.84455 0.78982 0.46369 0.03800
H 	H 	0.98184 0.75178 0.44366 0.01100
H 	H 	0.97604 0.82931 0.45788 0.03700
H 	H 	0.07478 0.81713 0.47512 0.05000
H 	H 	0.93542 0.87127 0.51817 0.02400
H 	H 	1.03801 0.86625 0.53445 0.03600
H 	H 	1.07927 0.80724 0.54993 0.02600
H 	H 	1.00015 0.77776 0.56365 0.03900
H 	H 	0.97288 0.73333 0.50663 0.04600
H 	H 	0.72522 0.74413 0.58247 0.04700
H 	H 	0.59038 0.76924 0.62299 0.00500
H 	H 	0.61936 0.67709 0.57508 0.07000
H 	H 	0.67254 0.71109 0.61693 0.06100
H 	H 	0.57376 0.68960 0.62154 0.06400
H 	H 	0.44628 0.77206 0.61615 0.06400
H 	H 	0.44065 0.72381 0.57566 0.07700
H 	H 	0.45285 0.72407 0.62302 0.06500
C 	C 	-0.00646 0.28874 0.52369 -0.05600
C 	C 	0.05173 0.25629 0.50602 0.00800
C 	C 	0.04362 0.21260 0.50907 0.02800
C 	C 	0.10113 0.20996 0.54110 -0.17300
C 	C 	0.06094 0.17553 0.47228 -0.17800
C 	C 	0.12929 0.26674 0.49393 -0.06000
C 	C 	0.15843 0.30877 0.50322 0.00300
C 	C 	0.25309 0.32089 0.49976 0.05900
O 	O 	0.25816 0.34741 0.47858 -0.27300
C 	C 	0.31171 0.28239 0.48259 0.00700
C 	C 	0.33436 0.25724 0.50869 -0.10000
C 	C 	0.40374 0.22565 0.48792 0.02100
C 	C 	0.37654 0.20791 0.44438 -0.08000
C 	C 	0.39348 0.24418 0.42878 -0.02100
N 	N 	0.38888 0.28573 0.46055 -0.10000
C 	C 	0.47082 0.29061 0.48258 -0.01700
C 	C 	0.49071 0.25116 0.49402 -0.08200
C 	C 	0.10020 0.34069 0.51985 -0.05800
C 	C 	0.01870 0.33185 0.53082 0.01400
C 	C 	-0.03229 0.36919 0.55709 0.02100
C 	C 	-0.06683 0.39758 0.53704 -0.17400
C 	C 	1.01917 0.39500 0.59297 -0.16200
H 	H 	-0.02164 0.20768 0.51629 0.02700
H 	H 	0.08496 0.23496 0.56843 0.05600
H 	H 	0.16869 0.21378 0.53532 0.05500
H 	H 	0.09318 0.17863 0.54373 0.05900
H 	H 	1.01622 0.17605 0.44984 0.06200
H 	H 	1.05019 0.14525 0.47665 0.06400
H 	H 	0.12722 0.17536 0.46286 0.05400
H 	H 	0.16916 0.24060 0.48078 0.03500
H 	H 	0.27639 0.33866 0.52893 0.01700
H 	H 	0.23710 0.33085 0.45248 0.13800
H 	H 	0.26666 0.26351 0.46026 0.02700
H 	H 	0.35780 0.27905 0.53692 0.04100
H 	H 	0.27973 0.23965 0.51387 0.03700
H 	H 	0.40758 0.19976 0.49938 0.01500
H 	H 	0.30799 0.19909 0.44183 0.03000
H 	H 	0.40255 0.17761 0.42581 0.01800
H 	H 	0.34531 0.24306 0.40695 0.02400
H 	H 	0.45627 0.24036 0.41494 0.03200
H 	H 	0.52291 0.29631 0.46543 0.04000
H 	H 	0.46754 0.31923 0.50866 0.03500
H 	H 	0.50907 0.26234 0.52457 0.04200
H 	H 	0.12140 0.37312 0.52734 0.04200
H 	H 	0.91029 0.35814 0.56725 0.03000
H 	H 	-0.01505 0.41044 0.52480 0.05800
H 	H 	-0.11318 0.37950 0.51458 0.06800
H 	H 	-0.10099 0.42445 0.55754 0.06500
H 	H 	1.04849 0.37353 0.60579 0.02000
H 	H 	1.07003 0.41424 0.58652 0.05000
H 	H 	-0.02327 0.41675 0.61425 0.03300
C 	C 	0.55894 0.61469 0.01759 -0.05100
C 	C 	0.49059 0.59476 0.99157 0.01400
C 	C 	0.46523 0.60823 0.95847 0.03100
C 	C 	0.36902 0.61352 0.95617 -0.17600
C 	C 	0.49662 0.57641 0.92087 -0.17600
C 	C 	0.44683 0.55983 0.99510 -0.05200
C 	C 	0.46389 0.54614 0.02506 0.00100
C 	C 	0.42095 0.50638 0.02676 0.05600
O 	O 	0.43009 0.50494 0.06344 -0.26900
C 	C 	0.45220 0.46503 0.99418 0.01200
C 	C 	0.38262 0.44420 0.96272 -0.10100
C 	C 	0.36287 0.39890 0.96135 0.03300
C 	C 	0.44403 0.37297 0.94875 -0.09700
C 	C 	0.51915 0.39690 0.97486 -0.01200
N 	N 	0.48794 0.43245 1.00818 -0.10300
C 	C 	0.42237 0.41450 0.02639 -0.01400
C 	C 	0.34022 0.40299 0.00228 -0.08600
C 	C 	0.52453 0.56825 0.05213 -0.05300
C 	C 	0.57621 0.59983 0.04750 0.01000
C 	C 	0.65875 0.60869 0.06990 0.02600
C 	C 	0.71251 0.56837 0.05397 -0.17500
C 	C 	0.64218 0.62228 0.11309 -0.17400
H 	H 	0.49327 0.63962 0.96241 0.01500
H 	H 	0.34419 0.63060 0.98482 0.06400
H 	H 	0.33511 0.58264 0.94407 0.05400
H 	H 	0.35460 0.63185 0.93775 0.05100
H 	H 	0.56566 0.57137 0.92259 0.06600
H 	H 	0.48487 0.58846 0.89756 0.04900
H 	H 	0.46342 0.54541 0.91380 0.05600
H 	H 	0.39924 0.54273 0.97420 0.03400
H 	H 	0.35204 0.51017 0.02305 0.02300
H 	H 	0.48887 0.49644 0.06661 0.13500
H 	H 	0.50482 0.47527 0.97984 0.02800
H 	H 	0.32326 0.46245 0.96748 0.04100
H 	H 	0.40555 0.44287 0.93455 0.03900
H 	H 	0.31066 0.38542 0.94128 0.01200
H 	H 	0.45739 0.36829 0.91868 0.03800
H 	H 	0.43500 0.34132 0.95071 0.05000
H 	H 	0.56398 0.40882 0.95835 0.02900
H 	H 	0.55568 0.37474 0.98451 0.02900
H 	H 	0.44654 0.38527 0.02914 0.03000
H 	H 	0.40940 0.43512 0.05587 0.03900
H 	H 	0.29666 0.43010 0.01342 0.05200
H 	H 	0.53922 0.55816 0.07549 0.04500
H 	H 	0.69541 0.63449 0.06554 0.02800
H 	H 	0.68105 0.54081 0.05781 0.05900
H 	H 	0.72221 0.56078 0.02312 0.06300
H 	H 	0.77595 0.57129 0.06706 0.05700
H 	H 	0.66941 0.59964 0.12509 0.05800
H 	H 	0.67039 0.65398 0.12847 0.05900
H 	H 	0.57372 0.62524 0.11990 0.06100
C 	C 	0.57962 0.40285 0.51382 -0.04400
C 	C 	0.51857 0.42483 0.54133 0.00900
C 	C 	0.48396 0.40804 0.57099 0.03400
C 	C 	0.38690 0.40519 0.56903 -0.18200
C 	C 	0.51467 0.43542 0.61119 -0.17800
C 	C 	0.48952 0.46403 0.54219 -0.05700
C 	C 	0.51956 0.48222 0.51686 0.00400
C 	C 	0.51603 0.52944 0.52421 0.06000
O 	O 	0.59932 0.54593 0.53104 -0.26900
C 	C 	0.45678 0.55662 0.55673 0.00900
C 	C 	0.36130 0.55278 0.54373 -0.10200
C 	C 	0.33075 0.59667 0.54531 0.02900
C 	C 	0.33553 0.62639 0.58732 -0.09800
C 	C 	0.42586 0.62492 0.60327 -0.01100
N 	N 	0.48426 0.60195 0.57232 -0.10200
C 	C 	0.48023 0.62127 0.54272 -0.01200
C 	C 	0.39387 0.61207 0.52196 -0.08100
C 	C 	0.56582 0.45703 0.48584 -0.05100
C 	C 	0.59718 0.41753 0.48372 0.00800
C 	C 	0.65208 0.39379 0.45010 0.03100
C 	C 	0.73047 0.42002 0.44833 -0.17600
C 	C 	0.60051 0.38043 0.41282 -0.17500
H 	H 	0.50533 0.37542 0.56528 0.01200
H 	H 	0.36535 0.39297 0.53893 0.07600
H 	H 	0.35789 0.43645 0.58316 0.05700
H 	H 	0.36393 0.38367 0.58326 0.05300
H 	H 	0.49696 0.42006 0.63161 0.04700
H 	H 	0.48616 0.46721 0.62050 0.05700
H 	H 	0.58462 0.43950 0.61220 0.06600
H 	H 	0.44546 0.48048 0.56380 0.03600
H 	H 	0.49397 0.53247 0.49726 0.02300
H 	H 	0.61974 0.54313 0.55500 0.14100
H 	H 	0.46335 0.54547 0.58082 0.02500
H 	H 	0.35160 0.52917 0.51458 0.04400
H 	H 	0.32245 0.54177 0.56289 0.04000
H 	H 	0.26602 0.59457 0.53314 0.01600
H 	H 	0.28880 0.61622 0.60419 0.03900
H 	H 	0.32044 0.65916 0.58987 0.05300
H 	H 	0.42378 0.60956 0.62483 0.02400
H 	H 	0.44980 0.65723 0.61871 0.02300
H 	H 	0.48952 0.65569 0.55599 0.03500
H 	H 	0.53233 0.60985 0.52219 0.04300
H 	H 	0.40290 0.58496 0.49496 0.05300
H 	H 	0.58228 0.46992 0.46438 0.04200
H 	H 	0.67595 0.36431 0.45209 0.03000
H 	H 	0.71501 0.45239 0.45011 0.06100
H 	H 	0.77522 0.42222 0.47194 0.06200
H 	H 	0.76167 0.40477 0.42084 0.05600
H 	H 	0.63926 0.36009 0.38901 0.05900
H 	H 	0.54335 0.36196 0.41481 0.06400
H 	H 	0.58057 0.40826 0.40615 0.05900
C 	C 	0.17046 0.08640 0.00178 -0.05100
C 	C 	0.12267 0.05724 0.97073 0.01300
C 	C 	0.10260 0.06505 0.93406 0.02900
C 	C 	1.00849 0.05669 0.92230 -0.17100
C 	C 	0.15866 0.03785 0.90177 -0.17700
C 	C 	0.09403 0.01892 0.97289 -0.05400
C 	C 	0.10837 0.00866 0.00502 -0.00200
C 	C 	0.08733 0.96502 0.00628 0.05400
O 	O 	0.16331 0.94653 0.01170 -0.27000
C 	C 	0.03558 0.93296 0.97171 0.01400
C 	C 	0.93920 0.94369 0.97144 -0.10300
C 	C 	0.88414 0.90628 0.97374 0.03400
C 	C 	0.90267 0.86730 0.93821 -0.09900
C 	C 	0.99944 0.85950 0.93598 -0.00700
N 	N 	0.04441 0.88878 0.97028 -0.10000
C 	C 	1.00681 0.88339 0.00405 -0.01300
C 	C 	0.91458 0.89846 0.00971 -0.08600
C 	C 	0.14827 0.03893 0.03673 -0.05300
C 	C 	0.17991 0.07770 0.03587 0.00700
C 	C 	0.22520 0.10808 0.07136 0.02900
C 	C 	0.30312 0.08812 0.08232 -0.17700
C 	C 	0.16422 0.12390 0.10469 -0.17200
H 	H 	0.11447 0.09861 0.93813 0.01300
H 	H 	0.96746 0.07040 0.94730 0.05600
H 	H 	-0.00672 0.02247 0.90919 0.05300
H 	H 	0.99287 0.07119 0.90100 0.04900
H 	H 	0.22669 0.04330 0.91005 0.06800
H 	H 	0.14823 0.04597 0.87608 0.05000
H 	H 	0.14391 0.00376 0.89452 0.06000
H 	H 	0.06112 -0.00302 0.94866 0.03600
H 	H 	0.04913 0.97074 0.03214 0.02200
H 	H 	0.19808 0.94182 -0.01120 0.13600
H 	H 	0.06474 0.93369 0.94532 0.02400
H 	H 	0.92441 0.97316 0.99542 0.04600
H 	H 	0.92305 0.94927 0.94488 0.04000
H 	H 	0.81581 0.91404 0.97525 0.01600
H 	H 	0.87982 0.87251 0.91229 0.03900
H 	H 	0.86830 0.83918 0.93954 0.05100
H 	H 	0.02501 0.86341 0.91008 0.02300
H 	H 	0.01184 0.82632 0.93305 0.02500
H 	H 	1.00914 0.84960 0.00025 0.03400
H 	H 	0.04429 0.90152 0.02983 0.03700
H 	H 	0.91587 0.92992 0.03308 0.04900
H 	H 	0.15685 0.03145 0.06212 0.04400
H 	H 	0.24918 0.13643 0.06670 0.02900
H 	H 	0.28550 0.06030 0.08967 0.06300
H 	H 	0.34841 0.07839 0.05855 0.06500
H 	H 	0.33565 0.11144 0.10747 0.06500
H 	H 	0.19606 0.14859 0.12921 0.05400
H 	H 	0.10784 0.13804 0.09637 0.05800
H 	H 	0.14290 0.09788 0.11393 0.05800
C 	C 	0.90984 0.11685 0.51073 -0.04700
C 	C 	0.92658 0.07492 0.48534 0.00800
C 	C 	0.87674 0.05335 0.44817 0.02600
C 	C 	0.83798 0.01081 0.44613 -0.16900
C 	C 	0.93219 0.04764 0.41359 -0.16900
C 	C 	0.98837 0.05104 0.49526 -0.06200
C 	C 	0.02460 0.06408 0.53164 0.00200
C 	C 	0.09063 0.03836 0.54391 0.06000
O 	O 	0.15517 0.06602 0.56522 -0.26800
C 	C 	0.13212 1.00091 0.51168 0.00700
C 	C 	0.07464 0.96037 0.49451 -0.10100
C 	C 	0.12554 0.92094 0.49277 0.02800
C 	C 	0.20723 0.92050 0.47101 -0.09900
C 	C 	0.25978 0.96156 0.49133 -0.01000
N 	N 	0.21498 0.98973 0.52477 -0.10100
C 	C 	0.20403 0.96723 0.55175 -0.01200
C 	C 	0.14916 0.92620 0.53385 -0.07700
C 	C 	-0.00249 0.10208 0.55854 -0.05800
C 	C 	0.94364 0.12989 0.54894 0.00500
C 	C 	0.92278 0.17256 0.57990 0.02800
C 	C 	-0.01313 0.18855 0.61348 -0.16900
C 	C 	0.83386 0.17099 0.59539 -0.17400
H 	H 	0.82125 0.07220 0.44640 0.04100
H 	H 	0.80151 1.01494 0.47220 0.05600
H 	H 	0.88727 -0.01322 0.44296 0.05600
H 	H 	0.79393 -0.00153 0.42128 0.05600
H 	H 	0.96022 0.07839 0.41520 0.06300
H 	H 	0.89313 0.03490 0.38712 0.06700
H 	H 	0.98437 0.02542 0.41194 0.05500
H 	H 	1.00561 0.02136 0.47437 0.03600
H 	H 	0.05825 1.02536 0.56341 0.02300
H 	H 	0.18377 0.07807 0.54797 0.13400
H 	H 	0.14571 0.01309 0.48852 0.02500
H 	H 	0.01655 0.96265 0.51153 0.04100
H 	H 	0.05359 0.95641 0.46521 0.03800
H 	H 	0.08715 0.89182 0.47859 0.01300
H 	H 	0.19048 0.91779 0.44151 0.04200
H 	H 	0.24532 0.89279 0.46967 0.05300
H 	H 	0.27216 0.97846 0.47149 0.02200
H 	H 	0.32292 0.95371 0.50019 0.02700
H 	H 	0.26764 0.95999 0.56069 0.04300
H 	H 	0.17460 0.98845 0.57822 0.04300
H 	H 	0.08900 0.93181 0.54988 0.04300
H 	H 	0.02208 0.11032 0.58717 0.04900
H 	H 	0.92506 0.19751 0.56761 0.02800
H 	H 	-0.01988 0.17100 0.63312 0.05500
H 	H 	0.05301 0.18581 0.60342 0.05300
H 	H 	-0.02398 0.22244 0.63005 0.04100
H 	H 	0.81627 0.20287 0.61505 0.06100
H 	H 	0.78562 0.16029 0.57218 0.07200
H 	H 	0.83211 0.14887 0.61105 0.06000
C 	C 	0.54111 0.14728 0.29463 -0.08500
C 	C 	0.46544 0.16781 0.29182 0.01100
C 	C 	0.42121 0.19674 0.32669 0.03000
C 	C 	0.32995 0.18068 0.32789 -0.17800
C 	C 	0.42279 0.24234 0.32788 -0.17800
C 	C 	0.43011 0.16073 0.25575 -0.06500
C 	C 	0.47085 0.13529 0.22299 0.00700
C 	C 	0.45207 0.14158 0.18555 0.06100
O 	O 	0.50452 0.11669 0.15639 -0.27500
C 	C 	0.46018 0.18980 0.19128 0.00800
C 	C 	0.37292 0.21189 0.19432 -0.10300
C 	C 	0.37691 0.24167 0.17181 0.03100
C 	C 	0.45532 0.27132 0.18681 -0.09500
C 	C 	0.53681 0.24479 0.17813 -0.01200
N 	N 	0.51520 0.19899 0.16311 -0.10500
C 	C 	0.47133 0.18925 0.12582 -0.01200
C 	C 	0.38771 0.21356 0.12966 -0.08200
C 	C 	0.53273 0.10764 0.22675 -0.06400
C 	C 	0.56591 0.11213 0.26297 0.02300
C 	C 	0.62479 0.07994 0.26941 -0.00500
C 	C 	0.65408 0.04507 0.23301 -0.15700
C 	C 	0.57985 0.05965 0.29464 -0.12400
H 	H 	0.45485 0.19620 0.35249 0.00000
H 	H 	0.33110 0.14877 0.32972 0.04500
H 	H 	0.29223 0.17908 0.30240 0.06600
H 	H 	0.29589 0.20174 0.35273 0.05600
H 	H 	0.48926 0.25301 0.32709 0.06700
H 	H 	0.39453 0.26364 0.35457 0.06000
H 	H 	0.38696 0.24521 0.30343 0.06800
H 	H 	0.37551 0.17835 0.25294 0.03900
H 	H 	0.38611 0.13012 0.17702 0.01900
H 	H 	0.56367 0.12724 0.16313 0.14000
H 	H 	0.49227 0.20567 0.21944 0.03100
H 	H 	0.31941 0.18900 0.18324 0.04100
H 	H 	0.35933 0.23029 0.22455 0.04500
H 	H 	0.31758 0.25969 0.17498 0.02100
H 	H 	0.45012 0.28804 0.21798 0.04600
H 	H 	0.45932 0.29612 0.17427 0.05500
H 	H 	0.57672 0.25277 0.20433 0.02400
H 	H 	0.57587 0.25306 0.15737 0.02300
H 	H 	0.51381 0.19815 0.10683 0.03000
H 	H 	0.45900 0.15483 0.11222 0.03800
H 	H 	0.33422 0.19022 0.12140 0.04500
H 	H 	0.55646 0.08391 0.20147 0.04700
H 	H 	0.68302 0.09662 0.28451 0.02300
H 	H 	0.59929 0.02562 0.21699 0.04200
H 	H 	0.68823 0.05908 0.21469 0.05700
H 	H 	0.69840 0.02383 0.24028 0.05000
H 	H 	0.62567 0.04178 0.30525 0.01100
H 	H 	0.55148 0.08357 0.31966 -0.08700
H 	H 	0.52688 0.03875 0.27865 0.03600
C 	C 	0.57549 0.83481 0.22396 -0.06700
C 	C 	0.52758 0.87130 0.24317 -0.01700
C 	C 	0.54001 0.91280 0.23709 0.04900
C 	C 	0.56510 0.94850 0.27400 -0.18600
C 	C 	0.46062 0.92351 0.21861 -0.20900
C 	C 	0.46530 0.86923 0.26892 -0.04700
C 	C 	0.44972 0.83231 0.27642 0.00400
C 	C 	0.38892 0.83207 0.30757 0.05900
O 	O 	0.30669 0.84179 0.29886 -0.26600
C 	C 	0.41985 0.86274 0.34747 0.00800
C 	C 	0.49781 0.84646 0.36382 -0.10000
C 	C 	0.47613 0.84576 0.40367 0.02300
C 	C 	0.45511 0.89109 0.42953 -0.09500
C 	C 	0.38536 0.90824 0.41004 -0.01300
N 	N 	0.35037 0.87467 0.37570 -0.10400
C 	C 	0.32052 0.83866 0.38650 -0.01300
C 	C 	0.39617 0.81746 0.39846 -0.07800
C 	C 	0.48918 0.79534 0.25392 -0.05800
C 	C 	0.54855 0.79556 0.22634 0.01200
C 	C 	0.57779 0.75331 0.19810 0.03000
C 	C 	0.50191 0.72603 0.17654 -0.17700
C 	C 	0.63172 0.72967 0.21779 -0.17700
H 	H 	0.59242 0.91117 0.21784 -0.11100
H 	H 	0.61637 0.93846 0.28912 0.05900
H 	H 	0.51053 0.95947 0.29318 0.05000
H 	H 	0.59023 0.97495 0.26661 0.04900
H 	H 	0.44376 0.89691 0.19191 0.00500
H 	H 	0.47294 0.95202 0.21142 0.02100
H 	H 	0.40560 0.92961 0.23786 0.06400
H 	H 	0.43051 0.89728 0.28421 0.03100
H 	H 	0.38513 0.79978 0.30850 0.02700
H 	H 	0.30640 0.87212 0.30221 0.13400
H 	H 	0.44141 0.89212 0.34340 0.02300
H 	H 	0.51643 0.81449 0.34462 0.04300
H 	H 	0.55371 0.86756 0.36629 0.04200
H 	H 	0.53095 0.83354 0.41475 0.01200
H 	H 	0.51295 0.91154 0.43485 0.03600
H 	H 	0.43203 0.89141 0.45733 0.04400
H 	H 	0.41110 0.93497 0.40279 0.02000
H 	H 	0.33431 0.92155 0.42958 0.02600
H 	H 	0.27427 0.84960 0.40970 0.03200
H 	H 	0.28563 0.81525 0.36216 0.04200
H 	H 	0.40898 0.79001 0.37206 0.05100
H 	H 	0.47244 0.76597 0.25742 0.04000
H 	H 	0.61721 0.75828 0.17585 0.02600
H 	H 	0.46319 0.71447 0.19536 0.06400
H 	H 	0.46097 0.74464 0.16446 0.06400
H 	H 	0.52454 0.69837 0.15260 0.06100
H 	H 	0.59489 0.72220 0.23952 0.06100
H 	H 	0.65416 0.69970 0.19657 0.06300
H 	H 	0.68807 0.74908 0.23193 0.07600
C 	C 	0.47410 0.84585 0.73836 -0.08300
C 	C 	0.46564 0.88346 0.77009 -0.00000
C 	C 	0.44494 0.92426 0.76429 0.04500
C 	C 	0.52167 0.95442 0.77613 -0.18900
C 	C 	0.36452 0.94447 0.78498 -0.18300
C 	C 	0.47723 0.88265 0.80705 -0.05500
C 	C 	0.50275 0.84570 0.81246 0.00500
C 	C 	0.47964 0.83635 0.84796 0.05900
O 	O 	0.39283 0.82573 0.84550 -0.26500
C 	C 	0.50151 0.87053 0.88788 0.00700
C 	C 	0.59864 0.87483 0.89793 -0.10100
C 	C 	0.61497 0.86234 0.93325 0.02800
C 	C 	0.56779 0.89386 0.96695 -0.09500
C 	C 	0.47331 0.89516 0.95553 -0.01300
N 	N 	0.45351 0.86157 0.91833 -0.10000
C 	C 	0.47777 0.82054 0.92114 -0.01100
C 	C 	0.57535 0.81782 0.92350 -0.08100
C 	C 	0.52970 0.81201 0.78063 -0.05600
C 	C 	0.51560 0.81156 0.74355 0.01200
C 	C 	0.53953 0.77310 0.70950 0.03000
C 	C 	0.48597 0.73403 0.70689 -0.17600
C 	C 	0.63432 0.76428 0.71082 -0.17800
H 	H 	0.43343 0.91807 0.73366 -0.05600
H 	H 	0.58041 0.93745 0.76389 0.03600
H 	H 	0.52926 0.96817 0.80752 0.06000
H 	H 	0.51452 0.97995 0.76470 0.04000
H 	H 	0.31176 0.92081 0.77758 0.06400
H 	H 	0.34550 0.97093 0.77602 0.05700
H 	H 	0.37462 0.95698 0.81626 0.06200
H 	H 	0.46138 0.90999 0.83126 0.03500
H 	H 	0.51374 0.80742 0.84641 0.02600
H 	H 	0.36087 0.85169 0.84844 0.13800
H 	H 	0.47993 0.90130 0.88733 0.02500
H 	H 	0.63650 0.85477 0.87360 0.04200
H 	H 	0.62045 0.90800 0.90439 0.04100
H 	H 	0.68395 0.86265 0.93956 0.02000
H 	H 	0.59734 0.92581 0.97500 0.04300
H 	H 	0.57252 0.88394 0.99195 0.05200
H 	H 	0.45876 0.92659 0.95422 0.02900
H 	H 	0.43164 0.89117 0.97762 0.03000
H 	H 	0.44832 0.81712 0.94658 0.03300
H 	H 	0.45174 0.79378 0.89653 0.04200
H 	H 	0.59670 0.79943 0.89423 0.05300
H 	H 	0.55399 0.78409 0.78444 0.04100
H 	H 	0.52804 0.77948 0.68293 0.00800
H 	H 	0.49247 0.72661 0.73316 0.06400
H 	H 	0.41796 0.73918 0.70239 0.07100
H 	H 	0.50659 0.70623 0.68253 0.05800
H 	H 	0.65282 0.74043 0.68337 0.05900
H 	H 	0.67273 0.79350 0.71572 0.05200
H 	H 	0.64891 0.75182 0.73363 0.06700
C 	C 	0.45376 0.17007 0.78927 -0.08500
C 	C 	0.45843 0.20142 0.77258 0.01700
C 	C 	0.43042 0.24670 0.79505 0.01600
C 	C 	0.41879 0.27489 0.77133 -0.16800
C 	C 	0.49240 0.26816 0.82818 -0.16000
C 	C 	0.48619 0.18961 0.73485 -0.06600
C 	C 	0.50520 0.14755 0.71325 0.00400
C 	C 	0.51238 0.13090 0.66972 0.06200
O 	O 	0.59405 0.11609 0.65848 -0.27600
C 	C 	0.48084 0.16172 0.65024 0.01300
C 	C 	0.45417 0.14187 0.60746 -0.10000
C 	C 	0.47120 0.17524 0.58858 0.02500
C 	C 	0.43572 0.21800 0.61477 -0.09100
C 	C 	0.48649 0.23309 0.65295 -0.01400
N 	N 	0.53917 0.19848 0.65626 -0.10400
C 	C 	0.60633 0.18822 0.62680 -0.01400
C 	C 	0.56855 0.17963 0.58629 -0.07700
C 	C 	0.51337 0.11913 0.73220 -0.05400
C 	C 	0.48966 0.13004 0.77037 -0.00700
C 	C 	0.49858 0.09765 0.78945 0.03600
C 	C 	0.59206 0.08764 0.79310 -0.18600
C 	C 	0.44569 0.05773 0.76874 -0.17600
H 	H 	0.36722 0.24534 0.80722 0.02700
H 	H 	0.37473 0.25939 0.74698 0.05400
H 	H 	0.48047 0.28188 0.76076 0.05700
H 	H 	0.39069 0.30536 0.78899 0.05100
H 	H 	0.49675 0.24982 0.84725 0.02800
H 	H 	0.47007 0.30017 0.84531 0.05100
H 	H 	0.55650 0.27100 0.81741 0.05200
H 	H 	0.48925 0.21280 0.72176 0.04700
H 	H 	0.46863 0.10303 0.65915 0.02200
H 	H 	0.63542 0.13685 0.67534 0.13500
H 	H 	0.41989 0.17322 0.66482 0.02500
H 	H 	0.49028 0.11273 0.59293 0.05300
H 	H 	0.38564 0.13298 0.60470 0.04400
H 	H 	0.44104 0.16513 0.55987 0.01200
H 	H 	0.36757 0.21398 0.62007 0.03700
H 	H 	0.43950 0.24196 0.60110 0.04200
H 	H 	0.44222 0.24444 0.67710 0.02200
H 	H 	0.52636 0.26082 0.65543 0.04000
H 	H 	0.65508 0.21377 0.63504 0.04300
H 	H 	0.64195 0.16009 0.62593 0.03900
H 	H 	0.59273 0.14910 0.56650 0.04400
H 	H 	0.53408 0.08745 0.71642 0.03800
H 	H 	0.47515 0.11010 0.81877 -0.05700
H 	H 	0.62152 0.07361 0.76484 0.05400
H 	H 	0.62760 0.11705 0.80984 0.01000
H 	H 	0.59789 0.06515 0.80826 0.03800
H 	H 	0.43977 0.03884 0.78724 0.05700
H 	H 	0.38073 0.06619 0.76278 0.06500
H 	H 	0.47503 0.03832 0.74154 0.04800
C 	C 	0.09158 0.67854 0.31192 -0.09000
C 	C 	1.07187 0.64232 0.27983 0.02300
C 	C 	1.08703 0.59881 0.28190 -0.00200
C 	C 	1.08092 0.56197 0.24358 -0.16100
C 	C 	1.02376 0.59105 0.30946 -0.13600
C 	C 	1.02977 0.64762 0.24867 -0.06700
C 	C 	1.00441 0.68784 0.25019 0.01100
C 	C 	0.95160 0.69633 0.21981 0.05700
O 	O 	0.86894 0.70522 0.23378 -0.26900
C 	C 	0.94937 0.66278 0.17844 0.00900
C 	C 	1.02274 0.66794 0.15245 -0.10000
C 	C 	0.98389 0.67474 0.11692 0.02600
C 	C 	0.92984 0.63536 0.09548 -0.09500
C 	C 	0.86302 0.62893 0.12261 -0.01600
N 	N 	0.86590 0.66327 0.16004 -0.10300
C 	C 	0.85210 0.70363 0.15416 -0.01200
C 	C 	0.92620 0.71344 0.13222 -0.07800
C 	C 	1.01292 0.72164 0.28481 -0.05700
C 	C 	0.05244 0.71698 0.31631 0.01900
C 	C 	0.04705 0.75195 0.35517 0.02500
C 	C 	-0.04567 0.75778 0.36784 -0.17500
C 	C 	0.08622 0.79354 0.35534 -0.17400
H 	H 	0.15220 0.59840 0.29326 -0.00100
H 	H 	1.12384 0.56769 0.22277 0.05800
H 	H 	1.01489 0.55716 0.23210 0.05200
H 	H 	1.10010 0.53234 0.24731 0.04800
H 	H 	1.02713 0.61707 0.33751 -0.07700
H 	H 	1.03800 0.56113 0.31379 0.00400
H 	H 	0.95782 0.58929 0.29821 0.04200
H 	H 	1.01570 0.62028 0.22413 0.03900
H 	H 	0.97783 0.72594 0.21770 0.02600
H 	H 	0.84553 0.67911 0.23631 0.13500
H 	H 	0.95433 0.63105 0.17998 0.02400
H 	H 	1.06668 0.69454 0.16793 0.04800
H 	H 	1.06161 0.63898 0.14301 0.04700
H 	H 	1.03425 0.67974 0.09859 0.02400
H 	H 	0.97059 0.60719 0.08469 0.04100
H 	H 	0.89763 0.63912 0.07069 0.04800
H 	H 	0.87016 0.59782 0.12579 0.02500
H 	H 	0.80093 0.62952 0.11023 0.03100
H 	H 	0.79072 0.70185 0.13882 0.03700
H 	H 	0.84474 0.73016 0.18156 0.05200
H 	H 	0.96638 0.73791 0.15373 0.05000
H 	H 	0.98577 0.75171 0.28759 0.04900
H 	H 	0.08232 0.74308 0.37682 0.01400
H 	H 	-0.08632 0.76567 0.34716 0.06000
H 	H 	0.92931 0.72824 0.37052 0.04900
H 	H 	-0.05053 0.78362 0.39580 0.05400
H 	H 	0.09397 0.81598 0.38507 0.05900
H 	H 	0.14967 0.78795 0.34228 0.07300
H 	H 	0.04546 0.80822 0.33946 0.06200
C 	C 	0.98859 0.28756 0.41001 -0.04100
C 	C 	1.01816 0.32692 0.40896 0.00600
C 	C 	0.99142 0.36882 0.43742 0.03000
C 	C 	0.93206 0.39060 0.41834 -0.17200
C 	C 	1.06826 0.39778 0.45538 -0.17600
C 	C 	1.07042 0.32756 0.37906 -0.05800
C 	C 	1.09508 0.29043 0.35058 0.00300
C 	C 	0.14591 0.28899 0.31617 0.05800
O 	O 	0.20899 0.25837 0.30986 -0.27500
C 	C 	0.18729 0.33134 0.31742 0.00800
C 	C 	0.12489 0.36095 0.30655 -0.10100
C 	C 	0.16747 0.37666 0.27711 0.02300
C 	C 	0.25367 0.39696 0.29456 -0.09300
C 	C 	0.31081 0.36252 0.29961 -0.01200
N 	N 	0.26202 0.32273 0.29240 -0.10100
C 	C 	0.23444 0.30509 0.25198 -0.00900
C 	C 	0.18136 0.33730 0.24074 -0.09000
C 	C 	1.07221 0.25217 0.35356 -0.05500
C 	C 	1.02389 0.24991 0.38356 0.00800
C 	C 	1.01022 0.20627 0.38571 0.03200
C 	C 	1.09575 0.18622 0.38857 -0.17600
C 	C 	0.95871 0.17668 0.35140 -0.18500
H 	H 	0.95692 0.36317 0.46044 0.02400
H 	H 	0.87869 0.36873 0.40447 0.06000
H 	H 	-0.03504 0.39929 0.39626 0.05200
H 	H 	0.90821 0.41995 0.43991 0.05300
H 	H 	1.11444 0.38088 0.46678 0.07200
H 	H 	1.04774 0.42665 0.47868 0.05500
H 	H 	0.10101 0.40835 0.43438 0.05700
H 	H 	0.08825 0.35745 0.37732 0.03400
H 	H 	1.10118 0.27754 0.29150 0.02000
H 	H 	0.24652 0.26747 0.33276 0.13500
H 	H 	0.21141 0.34799 0.34695 0.02600
H 	H 	1.06390 0.34451 0.29466 0.03400
H 	H 	0.10965 0.38859 0.33218 0.03500
H 	H 	0.12697 0.39995 0.27081 -0.00800
H 	H 	0.24365 0.42218 0.32267 0.03800
H 	H 	0.28479 0.41238 0.27659 0.04600
H 	H 	0.33880 0.37359 0.32877 0.02600
H 	H 	0.36516 0.35653 0.28001 0.03300
H 	H 	0.29184 0.29539 0.23478 0.03500
H 	H 	0.19720 0.27536 0.24574 0.03100
H 	H 	1.11840 0.32283 0.22937 -0.01000
H 	H 	1.09256 0.22336 0.33189 0.04800
H 	H 	0.97498 0.20929 0.41173 0.00200
H 	H 	1.13332 0.17942 0.36241 0.05700
H 	H 	1.13381 0.20778 0.41283 0.05900
H 	H 	1.08524 0.15576 0.39262 0.05200
H 	H 	0.93976 0.14762 0.35660 0.03900
H 	H 	0.90028 0.19183 0.34639 0.05200
H 	H 	0.99652 0.16743 0.32511 0.06200
C 	C 	0.06586 0.26651 0.89735 -0.04600
C 	C 	0.00848 0.23861 0.86967 0.00900
C 	C 	0.00945 0.19012 0.85601 0.02900
C 	C 	0.05808 0.17311 0.81879 -0.17800
C 	C 	-0.08013 0.16962 0.85073 -0.17200
C 	C 	-0.04708 0.25550 0.85010 -0.06300
C 	C 	-0.04994 0.29866 0.85666 0.00300
C 	C 	0.88653 0.31756 0.83660 0.06200
O 	O 	0.82437 0.33910 0.86242 -0.26700
C 	C 	0.84434 0.28517 0.80027 0.00700
C 	C 	0.90724 0.26737 0.76668 -0.09700
C 	C 	0.85866 0.26119 0.72911 0.02200
C 	C 	0.77638 0.23601 0.72962 -0.09100
C 	C 	0.71855 0.26452 0.76159 -0.01200
N 	N 	0.76760 0.30167 0.78761 -0.10100
C 	C 	0.79183 0.33020 0.76720 -0.01100
C 	C 	0.83598 0.30576 0.72913 -0.08700
C 	C 	0.00808 0.32547 0.88252 -0.05500
C 	C 	0.06800 0.31014 0.90220 0.00900
C 	C 	0.14422 0.33787 0.92182 0.02700
C 	C 	0.12943 0.38565 0.93396 -0.17400
C 	C 	0.22264 0.32361 0.89626 -0.17000
H 	H 	0.04146 0.17876 0.87642 0.01900
H 	H 	0.12016 0.18975 0.82203 0.07500
H 	H 	1.02221 0.17816 0.79529 0.05900
H 	H 	0.06926 0.13888 0.81111 0.05800
H 	H 	-0.12496 0.19018 0.87138 0.04900
H 	H 	-0.07801 0.13894 0.85506 0.04600
H 	H 	0.89321 0.16360 0.82184 0.05000
H 	H 	0.91377 0.23336 0.82870 0.03600
H 	H 	-0.07862 0.34133 0.82811 0.01700
H 	H 	0.79172 0.31772 0.86924 0.13300
H 	H 	0.82023 0.25889 0.80831 0.02300
H 	H 	-0.03745 0.28913 0.76990 0.03400
H 	H 	0.93270 0.23673 0.76599 0.03800
H 	H 	0.89821 0.24380 0.70432 0.00300
H 	H 	0.79303 0.20724 0.73559 0.03700
H 	H 	0.74357 0.22450 0.70157 0.04900
H 	H 	0.69207 0.24572 0.77782 0.02200
H 	H 	0.66208 0.27503 0.74994 0.03700
H 	H 	0.73468 0.34673 0.76274 0.02800
H 	H 	0.83501 0.35578 0.78520 0.02200
H 	H 	-0.10462 0.32269 0.72694 -0.02200
H 	H 	0.00849 0.35828 0.88549 0.04100
H 	H 	0.15684 0.33370 0.94909 0.03600
H 	H 	0.13197 0.39626 0.90938 0.05400
H 	H 	0.06711 0.39365 0.94788 0.06400
H 	H 	0.17764 0.40383 0.95530 0.06100
H 	H 	0.27622 0.31722 0.91267 0.06500
H 	H 	0.21066 0.29371 0.87183 0.06500
H 	H 	0.24280 0.34746 0.88406 0.05400
C 	C 	0.06043 0.72404 0.61697 -0.04200
C 	C 	0.01402 0.75360 0.64819 0.00800
C 	C 	0.03650 0.80140 0.66761 0.03000
C 	C 	-0.00446 0.82401 0.70649 -0.17300
C 	C 	0.01734 0.82654 0.64199 -0.18000
C 	C 	-0.05244 0.73778 0.66407 -0.05600
C 	C 	-0.06097 0.69510 0.65822 0.00000
C 	C 	0.87925 0.67934 0.68228 0.06100
O 	O 	0.79633 0.67685 0.66756 -0.26800
C 	C 	0.88265 0.70634 0.72613 0.00800
C 	C 	-0.05524 0.69115 0.75107 -0.10100
C 	C 	-0.09495 0.70128 0.79115 0.02100
C 	C 	0.87308 0.74722 0.80478 -0.09400
C 	C 	0.79861 0.74936 0.77823 -0.01400
N 	N 	0.79670 0.71127 0.74291 -0.10200
C 	C 	0.77347 0.67334 0.75210 -0.00700
C 	C 	0.82711 0.67140 0.78675 -0.09500
C 	C 	0.98085 0.66666 0.62761 -0.05100
C 	C 	0.03960 0.68001 0.60593 0.00400
C 	C 	0.07947 0.64607 0.57213 0.02800
C 	C 	1.01742 0.63248 0.53818 -0.17000
C 	C 	0.10658 0.60753 0.58166 -0.17400
H 	H 	0.10440 0.80483 0.67559 0.02300
H 	H 	0.00597 0.80623 0.72573 0.05700
H 	H 	-0.07333 0.82847 0.70328 0.05400
H 	H 	0.02527 0.85577 0.72046 0.05300
H 	H 	0.06125 0.81864 0.61806 0.05100
H 	H 	0.02583 0.86096 0.65783 0.05000
H 	H 	-0.04877 0.82034 0.63125 0.08000
H 	H 	-0.09600 0.75905 0.68294 0.03600
H 	H 	0.89669 0.64659 0.67879 0.02000
H 	H 	0.78080 0.70569 0.66931 0.13400
H 	H 	0.90690 0.73825 0.72950 0.02600
H 	H 	-0.04402 0.65672 0.73795 0.03400
H 	H 	0.00710 0.70768 0.75389 0.03800
H 	H 	-0.04760 0.69728 0.81158 -0.03500
H 	H 	0.92552 0.76890 0.80365 0.03800
H 	H 	0.85209 0.75763 0.83470 0.04000
H 	H 	0.80541 0.77820 0.77098 0.02300
H 	H 	0.73721 0.75229 0.79300 0.03600
H 	H 	0.70403 0.67255 0.75614 0.03600
H 	H 	0.78520 0.64427 0.72711 0.03400
H 	H 	-0.15088 0.63860 0.78021 -0.00000
H 	H 	0.96570 0.63361 0.62048 0.03900
H 	H 	0.13790 0.65813 0.56338 0.02900
H 	H 	0.95891 0.61812 0.54485 0.05900
H 	H 	0.99963 0.66016 0.53075 0.06100
H 	H 	1.04728 0.60896 0.51307 0.05300
H 	H 	0.14655 0.58666 0.55903 0.05600
H 	H 	0.14244 0.61785 0.60902 0.05700
H 	H 	0.05167 0.58772 0.58343 0.05500
