data_zeolite13X

_audit_creation_method RASPA-1.0
_audit_creation_date 2019-10-30
_audit_author_name 'Elias Moubarak'

_cell_length_a    25.077
_cell_length_b    25.077
_cell_length_c    25.077
_cell_angle_alpha 90
_cell_angle_beta  90
_cell_angle_gamma 90
_cell_volume      15769.8

_symmetry_cell_setting          cubic
_symmetry_space_group_name_Hall 'P 1'
_symmetry_space_group_name_H-M  'P 1'
_symmetry_Int_Tables_number     1

_symmetry_equiv_pos_as_xyz 'x,y,z'

loop_
_atom_site_label
_atom_site_type_symbol
_atom_site_fract_x
_atom_site_fract_y
_atom_site_fract_z
_atom_site_charge
O2Al     O      0.001400000000     0.747600000000     0.891300000000     0          
Si       Si     0.124300000000     0.535300000000     0.804500000000     0          
Si       Si     0.214000000000     0.624600000000     0.805300000000     0          
O1Al     O      0.140200000000     0.500100000000     0.856800000000     0          
O2Al     O      0.108700000000     0.498600000000     0.752400000000     0          
O3Si     O      0.175000000000     0.572400000000     0.784900000000     0          
O4Al     O      0.071600000000     0.570300000000     0.819700000000     0          
Si       Si     0.125700000000     0.714700000000     0.804500000000     0          
Al       Al     0.036000000000     0.625400000000     0.805300000000     0          
O1Al     O      0.109800000000     0.749900000000     0.856800000000     0          
O2Al     O      0.141300000000     0.751400000000     0.752400000000     0          
O3Al     O      0.075000000000     0.677600000000     0.784900000000     0          
O4Si     O      0.178400000000     0.679700000000     0.819700000000     0          
Al       Al     0.125400000000     0.444700000000     0.714000000000     0          
Al       Al     0.124600000000     0.805300000000     0.714000000000     0          
Al       Al     0.055300000000     0.786000000000     0.874600000000     0          
Al       Al     0.194700000000     0.464000000000     0.874600000000     0          
O1Si     O      0.250100000000     0.606800000000     0.859800000000     0          
O2Si     O      0.252400000000     0.641300000000     0.751400000000     0          
O3Al     O      0.034900000000     0.825000000000     0.822400000000     0          
O4Al     O      0.069700000000     0.821600000000     0.929700000000     0          
O1Al     O      0.856800000000     0.640200000000     0.000100000000     0          
O2Al     O      0.891300000000     0.748600000000     0.002400000000     0          
Si       Si     0.964700000000     0.695500000000     0.875700000000     0          
Si       Si     0.875400000000     0.694700000000     0.786000000000     0          
O1Al     O      0.999900000000     0.643200000000     0.859800000000     0          
O3Si     O      0.927600000000     0.715100000000     0.825000000000     0          
O4Al     O      0.929700000000     0.680300000000     0.928400000000     0          
Al       Al     0.874600000000     0.694700000000     0.964000000000     0          
O1Si     O      0.893200000000     0.640200000000     0.749900000000     0          
O2Al     O      0.997600000000     0.608700000000     0.751400000000     0          
O2Si     O      0.858700000000     0.748600000000     0.747600000000     0          
O4Si     O      0.820300000000     0.680300000000     0.821600000000     0          
Si       Si     0.624600000000     0.444700000000     0.036000000000     0          
Al       Al     0.625400000000     0.805300000000     0.036000000000     0          
Si       Si     0.785300000000     0.695500000000     0.874300000000     0          
O1Al     O      0.750100000000     0.643200000000     0.890200000000     0          
O2Al     O      0.748600000000     0.747600000000     0.858700000000     0          
O3Al     O      0.822400000000     0.715100000000     0.925000000000     0          
Si       Si     0.625700000000     0.535300000000     0.945500000000     0          
Al       Al     0.536000000000     0.624600000000     0.944700000000     0          
O1Al     O      0.609800000000     0.500100000000     0.893200000000     0          
O2Si     O      0.641300000000     0.498600000000     0.997600000000     0          
O3Al     O      0.575000000000     0.572400000000     0.965100000000     0          
O4Al     O      0.678400000000     0.570300000000     0.930300000000     0          
Si       Si     0.624300000000     0.714700000000     0.945500000000     0          
Al       Al     0.714000000000     0.625400000000     0.944700000000     0          
O1Al     O      0.640200000000     0.749900000000     0.893200000000     0          
O2Al     O      0.608700000000     0.751400000000     0.997600000000     0          
O3Al     O      0.675000000000     0.677600000000     0.965100000000     0          
O4Al     O      0.571600000000     0.679700000000     0.930300000000     0          
Al       Al     0.694700000000     0.786000000000     0.875400000000     0          
Al       Al     0.555300000000     0.464000000000     0.875400000000     0          
O1Al     O      0.499900000000     0.606800000000     0.890200000000     0          
O2Al     O      0.497600000000     0.641300000000     0.998600000000     0          
O2Al     O      0.752400000000     0.608700000000     0.998600000000     0          
O3Al     O      0.715100000000     0.825000000000     0.927600000000     0          
O4Al     O      0.680300000000     0.821600000000     0.820300000000     0          
O1Si     O      0.893200000000     0.109800000000     0.000100000000     0          
O2Si     O      0.858700000000     0.001400000000     0.002400000000     0          
Si       Si     0.785300000000     0.054500000000     0.875700000000     0          
Al       Al     0.874600000000     0.055300000000     0.786000000000     0          
O1Al     O      0.750100000000     0.106800000000     0.859800000000     0          
O2Al     O      0.748600000000     0.002400000000     0.891300000000     0          
O3Al     O      0.822400000000     0.034900000000     0.825000000000     0          
O4Si     O      0.820300000000     0.069700000000     0.928400000000     0          
Si       Si     0.625700000000     0.214700000000     0.804500000000     0          
Al       Al     0.536000000000     0.125400000000     0.805300000000     0          
O1Al     O      0.609800000000     0.249900000000     0.856800000000     0          
O2Al     O      0.641300000000     0.251400000000     0.752400000000     0          
O3Al     O      0.575000000000     0.177600000000     0.784900000000     0          
O4Al     O      0.678400000000     0.179700000000     0.819700000000     0          
Si       Si     0.624300000000     0.035300000000     0.804500000000     0          
Al       Al     0.714000000000     0.124600000000     0.805300000000     0          
O1Al     O      0.640200000000     0.000100000000     0.856800000000     0          
O3Al     O      0.675000000000     0.072400000000     0.784900000000     0          
O4Al     O      0.571600000000     0.070300000000     0.819700000000     0          
Al       Al     0.624600000000     0.305300000000     0.714000000000     0          
Si       Si     0.875400000000     0.055300000000     0.964000000000     0          
Al       Al     0.555300000000     0.286000000000     0.874600000000     0          
O1Al     O      0.856800000000     0.109800000000     0.749900000000     0          
O1Al     O      0.499900000000     0.143200000000     0.859800000000     0          
O2Al     O      0.497600000000     0.108700000000     0.751400000000     0          
O2Al     O      0.752400000000     0.141300000000     0.751400000000     0          
O2Al     O      0.891300000000     0.001400000000     0.747600000000     0          
O4Al     O      0.929700000000     0.069700000000     0.821600000000     0          
O2Al     O      0.608700000000     0.998600000000     0.752400000000     0          
Al       Al     0.625400000000     0.944700000000     0.714000000000     0          
Al       Al     0.694700000000     0.964000000000     0.874600000000     0          
O3Al     O      0.715100000000     0.925000000000     0.822400000000     0          
O4Al     O      0.680300000000     0.928400000000     0.929700000000     0          
Al       Al     0.125400000000     0.305300000000     0.036000000000     0          
O2Si     O      0.001400000000     0.002400000000     0.858700000000     0          
Si       Si     0.124300000000     0.214700000000     0.945500000000     0          
Al       Al     0.214000000000     0.125400000000     0.944700000000     0          
O1Al     O      0.140200000000     0.249900000000     0.893200000000     0          
O2Al     O      0.108700000000     0.251400000000     0.997600000000     0          
O3Al     O      0.175000000000     0.177600000000     0.965100000000     0          
O4Al     O      0.071600000000     0.179700000000     0.930300000000     0          
Si       Si     0.125700000000     0.035300000000     0.945500000000     0          
Al       Al     0.036000000000     0.124600000000     0.944700000000     0          
O1Si     O      0.109800000000     0.000100000000     0.893200000000     0          
O3Al     O      0.075000000000     0.072400000000     0.965100000000     0          
O4Al     O      0.178400000000     0.070300000000     0.930300000000     0          
Al       Al     0.194700000000     0.286000000000     0.875400000000     0          
O1Al     O      0.250100000000     0.143200000000     0.890200000000     0          
O2Al     O      0.252400000000     0.108700000000     0.998600000000     0          
Al       Al     0.124600000000     0.944700000000     0.036000000000     0          
O2Al     O      0.141300000000     0.998600000000     0.997600000000     0          
Si       Si     0.055300000000     0.964000000000     0.875400000000     0          
O3Si     O      0.034900000000     0.925000000000     0.927600000000     0          
O4Si     O      0.069700000000     0.928400000000     0.820300000000     0          
Si       Si     0.964700000000     0.054500000000     0.874300000000     0          
O1Al     O      0.999900000000     0.106800000000     0.890200000000     0          
O3Si     O      0.927600000000     0.034900000000     0.925000000000     0          
O2Al     O      0.997600000000     0.141300000000     0.998600000000     0          
O1Al     O      0.000100000000     0.856800000000     0.640200000000     0          
O2Al     O      0.002400000000     0.891300000000     0.748600000000     0          
Si       Si     0.804500000000     0.124300000000     0.535300000000     0          
Al       Al     0.805300000000     0.214000000000     0.624600000000     0          
O1Al     O      0.856800000000     0.140200000000     0.500100000000     0          
O2Al     O      0.752400000000     0.108700000000     0.498600000000     0          
O3Al     O      0.784900000000     0.175000000000     0.572400000000     0          
O4Al     O      0.819700000000     0.071600000000     0.570300000000     0          
Si       Si     0.804500000000     0.125700000000     0.714700000000     0          
Al       Al     0.805300000000     0.036000000000     0.625400000000     0          
O3Al     O      0.784900000000     0.075000000000     0.677600000000     0          
O4Al     O      0.819700000000     0.178400000000     0.679700000000     0          
Al       Al     0.714000000000     0.125400000000     0.444700000000     0          
Al       Al     0.874600000000     0.194700000000     0.464000000000     0          
O1Al     O      0.859800000000     0.250100000000     0.606800000000     0          
O2Al     O      0.751400000000     0.252400000000     0.641300000000     0          
Si       Si     0.875700000000     0.964700000000     0.695500000000     0          
Al       Al     0.786000000000     0.875400000000     0.694700000000     0          
O1Al     O      0.859800000000     0.999900000000     0.643200000000     0          
O3Al     O      0.825000000000     0.927600000000     0.715100000000     0          
O4Al     O      0.928400000000     0.929700000000     0.680300000000     0          
Al       Al     0.964000000000     0.874600000000     0.694700000000     0          
O1Al     O      0.749900000000     0.893200000000     0.640200000000     0          
O2Al     O      0.751400000000     0.997600000000     0.608700000000     0          
O2Al     O      0.747600000000     0.858700000000     0.748600000000     0          
O4Al     O      0.821600000000     0.820300000000     0.680300000000     0          
Al       Al     0.036000000000     0.624600000000     0.444700000000     0          
Si       Si     0.874300000000     0.785300000000     0.695500000000     0          
O1Al     O      0.890200000000     0.750100000000     0.643200000000     0          
O3Al     O      0.925000000000     0.822400000000     0.715100000000     0          
Si       Si     0.945500000000     0.625700000000     0.535300000000     0          
Al       Al     0.944700000000     0.536000000000     0.624600000000     0          
O1Al     O      0.893200000000     0.609800000000     0.500100000000     0          
O2Al     O      0.997600000000     0.641300000000     0.498600000000     0          
O3Al     O      0.965100000000     0.575000000000     0.572400000000     0          
O4Al     O      0.930300000000     0.678400000000     0.570300000000     0          
Si       Si     0.945500000000     0.624300000000     0.714700000000     0          
Al       Al     0.944700000000     0.714000000000     0.625400000000     0          
O3Al     O      0.965100000000     0.675000000000     0.677600000000     0          
O4Al     O      0.930300000000     0.571600000000     0.679700000000     0          
Al       Al     0.875400000000     0.555300000000     0.464000000000     0          
O1Al     O      0.890200000000     0.499900000000     0.606800000000     0          
O2Al     O      0.998600000000     0.497600000000     0.641300000000     0          
O2Al     O      0.998600000000     0.752400000000     0.608700000000     0          
O1Al     O      0.000100000000     0.893200000000     0.109800000000     0          
O2Al     O      0.002400000000     0.858700000000     0.001400000000     0          
Si       Si     0.875700000000     0.785300000000     0.054500000000     0          
Si       Si     0.786000000000     0.874600000000     0.055300000000     0          
O1Al     O      0.859800000000     0.750100000000     0.106800000000     0          
O3Si     O      0.825000000000     0.822400000000     0.034900000000     0          
O4Al     O      0.928400000000     0.820300000000     0.069700000000     0          
Si       Si     0.804500000000     0.625700000000     0.214700000000     0          
Al       Al     0.805300000000     0.536000000000     0.125400000000     0          
O1Al     O      0.856800000000     0.609800000000     0.249900000000     0          
O2Si     O      0.752400000000     0.641300000000     0.251400000000     0          
O3Al     O      0.784900000000     0.575000000000     0.177600000000     0          
O4Al     O      0.819700000000     0.678400000000     0.179700000000     0          
Si       Si     0.804500000000     0.624300000000     0.035300000000     0          
Al       Al     0.805300000000     0.714000000000     0.124600000000     0          
O3Al     O      0.784900000000     0.675000000000     0.072400000000     0          
O4Al     O      0.819700000000     0.571600000000     0.070300000000     0          
Si       Si     0.714000000000     0.624600000000     0.305300000000     0          
Al       Al     0.964000000000     0.875400000000     0.055300000000     0          
Al       Al     0.874600000000     0.555300000000     0.286000000000     0          
O1Si     O      0.749900000000     0.856800000000     0.109800000000     0          
O1Al     O      0.859800000000     0.499900000000     0.143200000000     0          
O2Al     O      0.751400000000     0.497600000000     0.108700000000     0          
O2Al     O      0.751400000000     0.752400000000     0.141300000000     0          
O2Si     O      0.747600000000     0.891300000000     0.001400000000     0          
O4Si     O      0.821600000000     0.929700000000     0.069700000000     0          
Al       Al     0.036000000000     0.125400000000     0.305300000000     0          
Si       Si     0.945500000000     0.124300000000     0.214700000000     0          
Al       Al     0.944700000000     0.214000000000     0.125400000000     0          
O1Si     O      0.893200000000     0.140200000000     0.249900000000     0          
O2Al     O      0.997600000000     0.108700000000     0.251400000000     0          
O3Al     O      0.965100000000     0.175000000000     0.177600000000     0          
O4Al     O      0.930300000000     0.071600000000     0.179700000000     0          
Si       Si     0.945500000000     0.125700000000     0.035300000000     0          
Al       Al     0.944700000000     0.036000000000     0.124600000000     0          
O3Al     O      0.965100000000     0.075000000000     0.072400000000     0          
O4Al     O      0.930300000000     0.178400000000     0.070300000000     0          
Si       Si     0.875400000000     0.194700000000     0.286000000000     0          
O1Al     O      0.890200000000     0.250100000000     0.143200000000     0          
O2Al     O      0.998600000000     0.252400000000     0.108700000000     0          
Si       Si     0.874300000000     0.964700000000     0.054500000000     0          
O1Al     O      0.890200000000     0.999900000000     0.106800000000     0          
O3Al     O      0.925000000000     0.927600000000     0.034900000000     0          
O2Al     O      0.998600000000     0.997600000000     0.141300000000     0          
Si       Si     0.535300000000     0.804500000000     0.124300000000     0          
Al       Al     0.624600000000     0.805300000000     0.214000000000     0          
O1Si     O      0.500100000000     0.856800000000     0.140200000000     0          
O2Al     O      0.498600000000     0.752400000000     0.108700000000     0          
O3Al     O      0.572400000000     0.784900000000     0.175000000000     0          
O4Al     O      0.570300000000     0.819700000000     0.071600000000     0          
Si       Si     0.714700000000     0.804500000000     0.125700000000     0          
O3Al     O      0.677600000000     0.784900000000     0.075000000000     0          
O4Al     O      0.679700000000     0.819700000000     0.178400000000     0          
Al       Al     0.444700000000     0.714000000000     0.125400000000     0          
Si       Si     0.464000000000     0.874600000000     0.194700000000     0          
O1Al     O      0.606800000000     0.859800000000     0.250100000000     0          
O2Al     O      0.641300000000     0.751400000000     0.252400000000     0          
Si       Si     0.695500000000     0.875700000000     0.964700000000     0          
O1Al     O      0.643200000000     0.859800000000     0.999900000000     0          
Al       Al     0.444700000000     0.036000000000     0.624600000000     0          
Si       Si     0.695500000000     0.874300000000     0.785300000000     0          
O1Al     O      0.643200000000     0.890200000000     0.750100000000     0          
Si       Si     0.535300000000     0.945500000000     0.625700000000     0          
Al       Al     0.624600000000     0.944700000000     0.536000000000     0          
O1Al     O      0.500100000000     0.893200000000     0.609800000000     0          
O2Al     O      0.498600000000     0.997600000000     0.641300000000     0          
O3Al     O      0.572400000000     0.965100000000     0.575000000000     0          
O4Al     O      0.570300000000     0.930300000000     0.678400000000     0          
Si       Si     0.714700000000     0.945500000000     0.624300000000     0          
O3Al     O      0.677600000000     0.965100000000     0.675000000000     0          
O4Al     O      0.679700000000     0.930300000000     0.571600000000     0          
Al       Al     0.464000000000     0.875400000000     0.555300000000     0          
O1Al     O      0.606800000000     0.890200000000     0.499900000000     0          
O2Al     O      0.641300000000     0.998600000000     0.497600000000     0          
Si       Si     0.054500000000     0.875700000000     0.785300000000     0          
O1Al     O      0.106800000000     0.859800000000     0.750100000000     0          
Si       Si     0.214700000000     0.804500000000     0.625700000000     0          
Al       Al     0.125400000000     0.805300000000     0.536000000000     0          
O1Al     O      0.249900000000     0.856800000000     0.609800000000     0          
O2Al     O      0.251400000000     0.752400000000     0.641300000000     0          
O3Al     O      0.177600000000     0.784900000000     0.575000000000     0          
O4Al     O      0.179700000000     0.819700000000     0.678400000000     0          
Si       Si     0.035300000000     0.804500000000     0.624300000000     0          
O3Al     O      0.072400000000     0.784900000000     0.675000000000     0          
O4Al     O      0.070300000000     0.819700000000     0.571600000000     0          
Al       Al     0.305300000000     0.714000000000     0.624600000000     0          
Al       Al     0.286000000000     0.874600000000     0.555300000000     0          
O1Al     O      0.143200000000     0.859800000000     0.499900000000     0          
O2Al     O      0.108700000000     0.751400000000     0.497600000000     0          
Al       Al     0.305300000000     0.036000000000     0.125400000000     0          
Si       Si     0.214700000000     0.945500000000     0.124300000000     0          
Al       Al     0.125400000000     0.944700000000     0.214000000000     0          
O1Al     O      0.249900000000     0.893200000000     0.140200000000     0          
O2Al     O      0.251400000000     0.997600000000     0.108700000000     0          
O3Al     O      0.177600000000     0.965100000000     0.175000000000     0          
O4Al     O      0.179700000000     0.930300000000     0.071600000000     0          
Si       Si     0.035300000000     0.945500000000     0.125700000000     0          
O3Al     O      0.072400000000     0.965100000000     0.075000000000     0          
O4Al     O      0.070300000000     0.930300000000     0.178400000000     0          
Al       Al     0.286000000000     0.875400000000     0.194700000000     0          
O1Al     O      0.143200000000     0.890200000000     0.250100000000     0          
O2Al     O      0.108700000000     0.998600000000     0.252400000000     0          
Si       Si     0.054500000000     0.874300000000     0.964700000000     0          
O1Al     O      0.106800000000     0.890200000000     0.999900000000     0          
Si       Si     0.035300000000     0.304500000000     0.124300000000     0          
Al       Al     0.124600000000     0.305300000000     0.214000000000     0          
O1Al     O      0.000100000000     0.356800000000     0.140200000000     0          
O3Al     O      0.072400000000     0.284900000000     0.175000000000     0          
O4Al     O      0.070300000000     0.319700000000     0.071600000000     0          
O1Al     O      0.106800000000     0.359800000000     0.250100000000     0          
O2Al     O      0.002400000000     0.391300000000     0.248600000000     0          
O2Al     O      0.141300000000     0.251400000000     0.252400000000     0          
O4Al     O      0.179700000000     0.319700000000     0.178400000000     0          
O1Al     O      0.143200000000     0.359800000000     0.999900000000     0          
Si       Si     0.875700000000     0.464700000000     0.195500000000     0          
Al       Al     0.786000000000     0.375400000000     0.194700000000     0          
O2Al     O      0.891300000000     0.501400000000     0.247600000000     0          
O3Al     O      0.825000000000     0.427600000000     0.215100000000     0          
O4Al     O      0.928400000000     0.429700000000     0.180300000000     0          
Si       Si     0.874300000000     0.285300000000     0.195500000000     0          
Al       Al     0.964000000000     0.374600000000     0.194700000000     0          
O2Si     O      0.858700000000     0.248600000000     0.247600000000     0          
O3Al     O      0.925000000000     0.322400000000     0.215100000000     0          
O4Al     O      0.821600000000     0.320300000000     0.180300000000     0          
O1Al     O      0.749900000000     0.393200000000     0.140200000000     0          
O2Al     O      0.747600000000     0.358700000000     0.248600000000     0          
Si       Si     0.214700000000     0.304500000000     0.125700000000     0          
O1Al     O      0.249900000000     0.356800000000     0.109800000000     0          
O2Al     O      0.251400000000     0.252400000000     0.141300000000     0          
O3Al     O      0.177600000000     0.284900000000     0.075000000000     0          
Si       Si     0.374300000000     0.464700000000     0.054500000000     0          
Al       Al     0.464000000000     0.375400000000     0.055300000000     0          
O1Al     O      0.390200000000     0.499900000000     0.106800000000     0          
O2Al     O      0.358700000000     0.501400000000     0.002400000000     0          
O3Al     O      0.425000000000     0.427600000000     0.034900000000     0          
O4Al     O      0.321600000000     0.429700000000     0.069700000000     0          
Si       Si     0.375700000000     0.285300000000     0.054500000000     0          
Al       Al     0.286000000000     0.374600000000     0.055300000000     0          
O1Al     O      0.359800000000     0.250100000000     0.106800000000     0          
O2Al     O      0.391300000000     0.248600000000     0.002400000000     0          
O3Al     O      0.325000000000     0.322400000000     0.034900000000     0          
O4Al     O      0.428400000000     0.320300000000     0.069700000000     0          
Al       Al     0.305300000000     0.214000000000     0.124600000000     0          
Al       Al     0.444700000000     0.536000000000     0.124600000000     0          
O1Al     O      0.500100000000     0.393200000000     0.109800000000     0          
O2Al     O      0.502400000000     0.358700000000     0.001400000000     0          
O2Al     O      0.247600000000     0.391300000000     0.001400000000     0          
O3Al     O      0.284900000000     0.175000000000     0.072400000000     0          
O4Al     O      0.319700000000     0.178400000000     0.179700000000     0          
Al       Al     0.375400000000     0.555300000000     0.964000000000     0          
Al       Al     0.374600000000     0.194700000000     0.964000000000     0          
O2Al     O      0.391300000000     0.001400000000     0.247600000000     0          
Al       Al     0.374600000000     0.055300000000     0.286000000000     0          
O3Al     O      0.284900000000     0.075000000000     0.177600000000     0          
O4Al     O      0.319700000000     0.071600000000     0.070300000000     0          
Si       Si     0.374300000000     0.785300000000     0.195500000000     0          
O1Al     O      0.390200000000     0.750100000000     0.143200000000     0          
O2Al     O      0.358700000000     0.748600000000     0.247600000000     0          
O3Si     O      0.425000000000     0.822400000000     0.215100000000     0          
O4Al     O      0.321600000000     0.820300000000     0.180300000000     0          
Si       Si     0.375700000000     0.964700000000     0.195500000000     0          
O1Al     O      0.359800000000     0.999900000000     0.143200000000     0          
O3Al     O      0.325000000000     0.927600000000     0.215100000000     0          
O4Si     O      0.428400000000     0.929700000000     0.180300000000     0          
Al       Al     0.375400000000     0.694700000000     0.286000000000     0          
O2Si     O      0.502400000000     0.891300000000     0.248600000000     0          
O2Al     O      0.247600000000     0.858700000000     0.248600000000     0          
Si       Si     0.124300000000     0.035300000000     0.304500000000     0          
Al       Al     0.214000000000     0.124600000000     0.305300000000     0          
O1Al     O      0.140200000000     0.000100000000     0.356800000000     0          
O3Al     O      0.175000000000     0.072400000000     0.284900000000     0          
O4Al     O      0.071600000000     0.070300000000     0.319700000000     0          
O1Al     O      0.250100000000     0.106800000000     0.359800000000     0          
O2Al     O      0.248600000000     0.002400000000     0.391300000000     0          
O2Al     O      0.252400000000     0.141300000000     0.251400000000     0          
O4Al     O      0.178400000000     0.179700000000     0.319700000000     0          
Si       Si     0.195500000000     0.875700000000     0.464700000000     0          
Al       Al     0.194700000000     0.786000000000     0.375400000000     0          
O2Al     O      0.247600000000     0.891300000000     0.501400000000     0          
O3Al     O      0.215100000000     0.825000000000     0.427600000000     0          
O4Al     O      0.180300000000     0.928400000000     0.429700000000     0          
Si       Si     0.195500000000     0.874300000000     0.285300000000     0          
Al       Al     0.194700000000     0.964000000000     0.374600000000     0          
O3Al     O      0.215100000000     0.925000000000     0.322400000000     0          
O4Al     O      0.180300000000     0.821600000000     0.320300000000     0          
O1Al     O      0.140200000000     0.749900000000     0.393200000000     0          
O2Al     O      0.248600000000     0.747600000000     0.358700000000     0          
O1Al     O      0.999900000000     0.143200000000     0.359800000000     0          
Si       Si     0.125700000000     0.214700000000     0.304500000000     0          
O1Al     O      0.109800000000     0.249900000000     0.356800000000     0          
O3Al     O      0.075000000000     0.177600000000     0.284900000000     0          
Si       Si     0.054500000000     0.374300000000     0.464700000000     0          
Al       Al     0.055300000000     0.464000000000     0.375400000000     0          
O1Si     O      0.106800000000     0.390200000000     0.499900000000     0          
O2Al     O      0.002400000000     0.358700000000     0.501400000000     0          
O3Al     O      0.034900000000     0.425000000000     0.427600000000     0          
O4Al     O      0.069700000000     0.321600000000     0.429700000000     0          
Si       Si     0.054500000000     0.375700000000     0.285300000000     0          
Al       Al     0.055300000000     0.286000000000     0.374600000000     0          
O3Al     O      0.034900000000     0.325000000000     0.322400000000     0          
O4Al     O      0.069700000000     0.428400000000     0.320300000000     0          
Si       Si     0.124600000000     0.444700000000     0.536000000000     0          
O1Al     O      0.109800000000     0.500100000000     0.393200000000     0          
O2Al     O      0.001400000000     0.502400000000     0.358700000000     0          
O2Al     O      0.001400000000     0.247600000000     0.391300000000     0          
Al       Al     0.964000000000     0.375400000000     0.555300000000     0          
Si       Si     0.195500000000     0.374300000000     0.785300000000     0          
O1Al     O      0.143200000000     0.390200000000     0.750100000000     0          
O2Al     O      0.247600000000     0.358700000000     0.748600000000     0          
O3Al     O      0.215100000000     0.425000000000     0.822400000000     0          
O4Al     O      0.180300000000     0.321600000000     0.820300000000     0          
Si       Si     0.195500000000     0.375700000000     0.964700000000     0          
O3Al     O      0.215100000000     0.325000000000     0.927600000000     0          
O4Al     O      0.180300000000     0.428400000000     0.929700000000     0          
Al       Al     0.286000000000     0.375400000000     0.694700000000     0          
O2Al     O      0.248600000000     0.502400000000     0.891300000000     0          
O2Al     O      0.248600000000     0.247600000000     0.858700000000     0          
Si       Si     0.304500000000     0.124300000000     0.035300000000     0          
O1Al     O      0.356800000000     0.140200000000     0.000100000000     0          
Si       Si     0.464700000000     0.195500000000     0.875700000000     0          
Al       Al     0.375400000000     0.194700000000     0.786000000000     0          
O2Al     O      0.501400000000     0.247600000000     0.891300000000     0          
O3Al     O      0.427600000000     0.215100000000     0.825000000000     0          
O4Al     O      0.429700000000     0.180300000000     0.928400000000     0          
Si       Si     0.285300000000     0.195500000000     0.874300000000     0          
O3Al     O      0.322400000000     0.215100000000     0.925000000000     0          
O4Al     O      0.320300000000     0.180300000000     0.821600000000     0          
O1Al     O      0.393200000000     0.140200000000     0.749900000000     0          
O2Al     O      0.358700000000     0.248600000000     0.747600000000     0          
Si       Si     0.304500000000     0.125700000000     0.214700000000     0          
O1Al     O      0.356800000000     0.109800000000     0.249900000000     0          
Si       Si     0.464700000000     0.054500000000     0.374300000000     0          
Al       Al     0.375400000000     0.055300000000     0.464000000000     0          
O1Al     O      0.499900000000     0.106800000000     0.390200000000     0          
O2Al     O      0.501400000000     0.002400000000     0.358700000000     0          
O3Al     O      0.427600000000     0.034900000000     0.425000000000     0          
O4Al     O      0.429700000000     0.069700000000     0.321600000000     0          
Si       Si     0.285300000000     0.054500000000     0.375700000000     0          
O3Al     O      0.322400000000     0.034900000000     0.325000000000     0          
O4Al     O      0.320300000000     0.069700000000     0.428400000000     0          
Al       Al     0.536000000000     0.124600000000     0.444700000000     0          
O1Al     O      0.393200000000     0.109800000000     0.500100000000     0          
O2Al     O      0.358700000000     0.001400000000     0.502400000000     0          
Al       Al     0.555300000000     0.964000000000     0.375400000000     0          
Si       Si     0.785300000000     0.195500000000     0.374300000000     0          
O1Al     O      0.750100000000     0.143200000000     0.390200000000     0          
O2Al     O      0.748600000000     0.247600000000     0.358700000000     0          
O3Al     O      0.822400000000     0.215100000000     0.425000000000     0          
O4Si     O      0.820300000000     0.180300000000     0.321600000000     0          
Si       Si     0.964700000000     0.195500000000     0.375700000000     0          
O3Si     O      0.927600000000     0.215100000000     0.325000000000     0          
O4Al     O      0.929700000000     0.180300000000     0.428400000000     0          
Al       Al     0.694700000000     0.286000000000     0.375400000000     0          
O2Al     O      0.891300000000     0.248600000000     0.502400000000     0          
Si       Si     0.464700000000     0.695500000000     0.375700000000     0          
O1Al     O      0.499900000000     0.643200000000     0.359800000000     0          
O2Al     O      0.501400000000     0.747600000000     0.391300000000     0          
O3Al     O      0.427600000000     0.715100000000     0.325000000000     0          
O4Al     O      0.429700000000     0.680300000000     0.428400000000     0          
Si       Si     0.624300000000     0.535300000000     0.304500000000     0          
O1Al     O      0.640200000000     0.500100000000     0.356800000000     0          
O2Al     O      0.608700000000     0.498600000000     0.252400000000     0          
O3Si     O      0.675000000000     0.572400000000     0.284900000000     0          
O4Al     O      0.571600000000     0.570300000000     0.319700000000     0          
Si       Si     0.625700000000     0.714700000000     0.304500000000     0          
Al       Al     0.536000000000     0.625400000000     0.305300000000     0          
O1Al     O      0.609800000000     0.749900000000     0.356800000000     0          
O3Al     O      0.575000000000     0.677600000000     0.284900000000     0          
O4Si     O      0.678400000000     0.679700000000     0.319700000000     0          
Al       Al     0.625400000000     0.444700000000     0.214000000000     0          
Al       Al     0.555300000000     0.786000000000     0.374600000000     0          
Al       Al     0.374600000000     0.694700000000     0.464000000000     0          
Al       Al     0.694700000000     0.464000000000     0.374600000000     0          
O1Al     O      0.393200000000     0.640200000000     0.249900000000     0          
O1Al     O      0.356800000000     0.640200000000     0.500100000000     0          
O1Si     O      0.750100000000     0.606800000000     0.359800000000     0          
O2Al     O      0.497600000000     0.608700000000     0.251400000000     0          
O2Al     O      0.391300000000     0.748600000000     0.502400000000     0          
O3Al     O      0.534900000000     0.825000000000     0.322400000000     0          
O4Al     O      0.569700000000     0.821600000000     0.429700000000     0          
O4Al     O      0.320300000000     0.680300000000     0.321600000000     0          
O3Al     O      0.534900000000     0.325000000000     0.822400000000     0          
O4Al     O      0.569700000000     0.321600000000     0.929700000000     0          
Si       Si     0.625700000000     0.035300000000     0.445500000000     0          
O1Al     O      0.609800000000     0.000100000000     0.393200000000     0          
O3Al     O      0.575000000000     0.072400000000     0.465100000000     0          
O4Al     O      0.678400000000     0.070300000000     0.430300000000     0          
Si       Si     0.624300000000     0.214700000000     0.445500000000     0          
O1Al     O      0.640200000000     0.249900000000     0.393200000000     0          
O2Al     O      0.608700000000     0.251400000000     0.497600000000     0          
O3Al     O      0.675000000000     0.177600000000     0.465100000000     0          
O4Al     O      0.571600000000     0.179700000000     0.430300000000     0          
Al       Al     0.625400000000     0.305300000000     0.536000000000     0          
O2Al     O      0.497600000000     0.141300000000     0.498600000000     0          
O3Al     O      0.715100000000     0.325000000000     0.427600000000     0          
O4Al     O      0.680300000000     0.321600000000     0.320300000000     0          
Si       Si     0.285300000000     0.695500000000     0.374300000000     0          
O1Al     O      0.250100000000     0.643200000000     0.390200000000     0          
O3Al     O      0.322400000000     0.715100000000     0.425000000000     0          
Si       Si     0.125700000000     0.535300000000     0.445500000000     0          
O2Si     O      0.141300000000     0.498600000000     0.497600000000     0          
O3Al     O      0.075000000000     0.572400000000     0.465100000000     0          
O4Al     O      0.178400000000     0.570300000000     0.430300000000     0          
Si       Si     0.124300000000     0.714700000000     0.445500000000     0          
Al       Al     0.214000000000     0.625400000000     0.444700000000     0          
O3Al     O      0.175000000000     0.677600000000     0.465100000000     0          
O4Al     O      0.071600000000     0.679700000000     0.430300000000     0          
O2Al     O      0.252400000000     0.608700000000     0.498600000000     0          
O1Al     O      0.999900000000     0.606800000000     0.390200000000     0          
Si       Si     0.785300000000     0.554500000000     0.375700000000     0          
O2Al     O      0.748600000000     0.502400000000     0.391300000000     0          
O3Al     O      0.822400000000     0.534900000000     0.325000000000     0          
O4Al     O      0.820300000000     0.569700000000     0.428400000000     0          
O2Al     O      0.858700000000     0.501400000000     0.502400000000     0          
O3Al     O      0.715100000000     0.425000000000     0.322400000000     0          
O4Al     O      0.680300000000     0.428400000000     0.429700000000     0          
O4Al     O      0.929700000000     0.569700000000     0.321600000000     0          
O1Al     O      0.393200000000     0.609800000000     0.000100000000     0          
Si       Si     0.285300000000     0.554500000000     0.875700000000     0          
Al       Al     0.374600000000     0.555300000000     0.786000000000     0          
O3Al     O      0.322400000000     0.534900000000     0.825000000000     0          
O4Al     O      0.320300000000     0.569700000000     0.928400000000     0          
O1Al     O      0.356800000000     0.609800000000     0.749900000000     0          
O2Al     O      0.391300000000     0.501400000000     0.747600000000     0          
O4Al     O      0.429700000000     0.569700000000     0.821600000000     0          
Si       Si     0.964700000000     0.554500000000     0.374300000000     0          
O3Al     O      0.927600000000     0.534900000000     0.425000000000     0          
O3Al     O      0.534900000000     0.925000000000     0.427600000000     0          
O4Al     O      0.569700000000     0.928400000000     0.320300000000     0          
Si       Si     0.464700000000     0.554500000000     0.874300000000     0          
O2Al     O      0.501400000000     0.502400000000     0.858700000000     0          
O3Al     O      0.427600000000     0.534900000000     0.925000000000     0          
O3Al     O      0.534900000000     0.425000000000     0.927600000000     0          
O4Al     O      0.569700000000     0.428400000000     0.820300000000     0          
Si       Si     0.375700000000     0.464700000000     0.695500000000     0          
O1Al     O      0.359800000000     0.499900000000     0.643200000000     0          
O3Al     O      0.325000000000     0.427600000000     0.715100000000     0          
O4Al     O      0.428400000000     0.429700000000     0.680300000000     0          
Si       Si     0.304500000000     0.624300000000     0.535300000000     0          
O3Al     O      0.284900000000     0.675000000000     0.572400000000     0          
O4Al     O      0.319700000000     0.571600000000     0.570300000000     0          
Si       Si     0.304500000000     0.625700000000     0.714700000000     0          
Al       Al     0.305300000000     0.536000000000     0.625400000000     0          
O3Al     O      0.284900000000     0.575000000000     0.677600000000     0          
O4Al     O      0.319700000000     0.678400000000     0.679700000000     0          
Al       Al     0.464000000000     0.374600000000     0.694700000000     0          
O1Al     O      0.249900000000     0.393200000000     0.640200000000     0          
O1Al     O      0.500100000000     0.356800000000     0.640200000000     0          
O1Al     O      0.359800000000     0.750100000000     0.606800000000     0          
O2Al     O      0.251400000000     0.497600000000     0.608700000000     0          
O2Al     O      0.502400000000     0.391300000000     0.748600000000     0          
O4Al     O      0.321600000000     0.320300000000     0.680300000000     0          
Si       Si     0.445500000000     0.625700000000     0.035300000000     0          
O3Al     O      0.465100000000     0.575000000000     0.072400000000     0          
O4Al     O      0.430300000000     0.678400000000     0.070300000000     0          
Si       Si     0.445500000000     0.624300000000     0.214700000000     0          
O3Al     O      0.465100000000     0.675000000000     0.177600000000     0          
O4Al     O      0.430300000000     0.571600000000     0.179700000000     0          
O2Al     O      0.498600000000     0.497600000000     0.141300000000     0          
Si       Si     0.374300000000     0.285300000000     0.695500000000     0          
O1Al     O      0.390200000000     0.250100000000     0.643200000000     0          
O3Al     O      0.425000000000     0.322400000000     0.715100000000     0          
Si       Si     0.445500000000     0.125700000000     0.535300000000     0          
O3Al     O      0.465100000000     0.075000000000     0.572400000000     0          
O4Al     O      0.430300000000     0.178400000000     0.570300000000     0          
Si       Si     0.445500000000     0.124300000000     0.714700000000     0          
Al       Al     0.444700000000     0.214000000000     0.625400000000     0          
O3Al     O      0.465100000000     0.175000000000     0.677600000000     0          
O4Al     O      0.430300000000     0.071600000000     0.679700000000     0          
O2Al     O      0.498600000000     0.252400000000     0.608700000000     0          
O1Al     O      0.390200000000     0.999900000000     0.606800000000     0          
O1Al     O      0.000100000000     0.393200000000     0.609800000000     0          
Si       Si     0.875700000000     0.285300000000     0.554500000000     0          
Al       Al     0.786000000000     0.374600000000     0.555300000000     0          
O3Al     O      0.825000000000     0.322400000000     0.534900000000     0          
O4Al     O      0.928400000000     0.320300000000     0.569700000000     0          
O1Al     O      0.749900000000     0.356800000000     0.609800000000     0          
O2Al     O      0.747600000000     0.391300000000     0.501400000000     0          
O4Al     O      0.821600000000     0.429700000000     0.569700000000     0          
Si       Si     0.375700000000     0.785300000000     0.554500000000     0          
O3Al     O      0.325000000000     0.822400000000     0.534900000000     0          
O4Al     O      0.428400000000     0.820300000000     0.569700000000     0          
O2Al     O      0.502400000000     0.858700000000     0.501400000000     0          
O4Al     O      0.321600000000     0.929700000000     0.569700000000     0          
Si       Si     0.874300000000     0.464700000000     0.554500000000     0          
O3Al     O      0.925000000000     0.427600000000     0.534900000000     0          
Si       Si     0.374300000000     0.964700000000     0.554500000000     0          
O3Al     O      0.425000000000     0.927600000000     0.534900000000     0          
Si       Si     0.695500000000     0.375700000000     0.464700000000     0          
O1Al     O      0.643200000000     0.359800000000     0.499900000000     0          
Si       Si     0.535300000000     0.304500000000     0.624300000000     0          
O3Al     O      0.572400000000     0.284900000000     0.675000000000     0          
O4Al     O      0.570300000000     0.319700000000     0.571600000000     0          
Si       Si     0.714700000000     0.304500000000     0.625700000000     0          
O3Al     O      0.677600000000     0.284900000000     0.575000000000     0          
O4Al     O      0.679700000000     0.319700000000     0.678400000000     0          
O1Al     O      0.606800000000     0.359800000000     0.750100000000     0          
Si       Si     0.695500000000     0.374300000000     0.285300000000     0          
O1Al     O      0.643200000000     0.390200000000     0.250100000000     0          
Si       Si     0.535300000000     0.445500000000     0.125700000000     0          
O3Si     O      0.572400000000     0.465100000000     0.075000000000     0          
O4Al     O      0.570300000000     0.430300000000     0.178400000000     0          
Si       Si     0.714700000000     0.445500000000     0.124300000000     0          
O3Al     O      0.677600000000     0.465100000000     0.175000000000     0          
O4Si     O      0.679700000000     0.430300000000     0.071600000000     0          
O1Si     O      0.606800000000     0.390200000000     0.999900000000     0          
Si       Si     0.035300000000     0.445500000000     0.625700000000     0          
O3Si     O      0.072400000000     0.465100000000     0.575000000000     0          
O4Al     O      0.070300000000     0.430300000000     0.678400000000     0          
Si       Si     0.214700000000     0.445500000000     0.624300000000     0          
O3Al     O      0.177600000000     0.465100000000     0.675000000000     0          
O4Si     O      0.179700000000     0.430300000000     0.571600000000     0          
Si       Si     0.554500000000     0.875700000000     0.285300000000     0          
Si       Si     0.554500000000     0.375700000000     0.785300000000     0          
Si       Si     0.554500000000     0.874300000000     0.464700000000     0          
Si       Si     0.554500000000     0.374300000000     0.964700000000     0          
Na	Na	0.9525	0.7975	0.7975	0
Na	Na	0.7975	0.7975	0.9525	0
Na	Na	0.7975	0.9525	0.7975	0
Na	Na	0.9525	0.9525	0.9525	0
Na	Na	0.0475	0.2025	0.2025	0
Na	Na	0.2025	0.2025	0.0475	0
Na	Na	0.2025	0.0475	0.2025	0
Na	Na	0.0475	0.0475	0.0475	0
Na	Na	0.9525	0.2975	0.2975	0
Na	Na	0.4525	0.7975	0.2975	0
Na	Na	0.4525	0.2975	0.7975	0
Na	Na	0.7975	0.2975	0.4525	0
Na	Na	0.2975	0.7975	0.4525	0
Na	Na	0.2975	0.2975	0.9525	0
Na	Na	0.7975	0.4525	0.2975	0
Na	Na	0.2975	0.9525	0.2975	0
Na	Na	0.2975	0.4525	0.7975	0
Na	Na	0.9525	0.4525	0.4525	0
Na	Na	0.4525	0.9525	0.4525	0
Na	Na	0.4525	0.4525	0.9525	0
Na	Na	0.0475	0.7025	0.7025	0
Na	Na	0.5475	0.2025	0.7025	0
Na	Na	0.5475	0.7025	0.2025	0
Na	Na	0.2025	0.7025	0.5475	0
Na	Na	0.7025	0.2025	0.5475	0
Na	Na	0.7025	0.7025	0.0475	0
Na	Na	0.2025	0.5475	0.7025	0
Na	Na	0.7025	0.0475	0.7025	0
Na	Na	0.7025	0.5475	0.2025	0
Na	Na	0.0475	0.5475	0.5475	0
Na	Na	0.5475	0.0475	0.5475	0
Na	Na	0.5475	0.5475	0.0475	0
Na	Na	0.2298	0.7298	0.7298	0
Na	Na	0.5202	0.7298	0.0202	0
Na	Na	0.5202	0.0202	0.7298	0
Na	Na	0.2298	0.0202	0.0202	0
Na	Na	0.7298	0.2298	0.7298	0
Na	Na	0.0202	0.5202	0.7298	0
Na	Na	0.7298	0.5202	0.0202	0
Na	Na	0.0202	0.2298	0.0202	0
Na	Na	0.7298	0.7298	0.2298	0
Na	Na	0.7298	0.0202	0.5202	0
Na	Na	0.0202	0.7298	0.5202	0
Na	Na	0.0202	0.0202	0.2298	0
Na	Na	0.7702	0.2702	0.2702	0
Na	Na	0.4798	0.2702	0.9798	0
Na	Na	0.4798	0.9798	0.2702	0
Na	Na	0.7702	0.9798	0.9798	0
Na	Na	0.2702	0.7702	0.2702	0
Na	Na	0.9798	0.4798	0.2702	0
Na	Na	0.2702	0.4798	0.9798	0
Na	Na	0.9798	0.7702	0.9798	0
Na	Na	0.2702	0.2702	0.7702	0
Na	Na	0.2702	0.9798	0.4798	0
Na	Na	0.9798	0.2702	0.4798	0
Na	Na	0.9798	0.9798	0.7702	0
Na	Na	0.2298	0.2298	0.2298	0
Na	Na	0.5202	0.2298	0.5202	0
Na	Na	0.5202	0.5202	0.2298	0
Na	Na	0.2298	0.5202	0.5202	0
Na	Na	0.7702	0.7702	0.7702	0
Na	Na	0.4798	0.7702	0.4798	0
Na	Na	0.4798	0.4798	0.7702	0
Na	Na	0.7702	0.4798	0.4798	0
Na	Na	0.0675	0.3362	0.7166	0
Na	Na	0.5675	0.8362	0.7166	0
Na	Na	0.5675	0.3362	0.2166	0
Na	Na	0.2834	0.3175	0.5862	0
Na	Na	0.4666	0.8175	0.6638	0
Na	Na	0.9666	0.3175	0.6638	0
Na	Na	0.9666	0.8175	0.1638	0
Na	Na	0.9666	0.9325	0.5862	0
Na	Na	0.9666	0.4325	0.0862	0
Na	Na	0.7834	0.4325	0.6638	0
Na	Na	0.2834	0.9325	0.6638	0
Na	Na	0.2834	0.4325	0.1638	0
Na	Na	0.0862	0.2834	0.8175	0
Na	Na	0.1638	0.9666	0.8175	0
Na	Na	0.4308	0.9593	0.0927	0
Na	Na	0.4308	0.4593	0.5927	0
Na	Na	0.8192	0.2907	0.0927	0
Na	Na	0.7093	0.8427	0.5692	0
Na	Na	0.7093	0.3427	0.0692	0
Na	Na	0.5692	0.2093	0.3427	0
Na	Na	0.5692	0.7093	0.8427	0
Na	Na	0.1808	0.5407	0.3427	0
